data_subtitutions
_audit_creation_method    igor
_audit_author_name 'sponge bob'
_cell_length_a    33.9819984
_cell_length_b    33.9819984
_cell_length_c    33.9819984
_cell_angle_alpha    90.0000000
_cell_angle_beta    90.0000000
_cell_angle_gamma    90.0000000
_cell_volume 39241.6054688
_symmetry_space_group_name_hall 'p 1'
_symmetry_space_group_name_h-m 'p 1'
_symmetry_int_tables_number 1
_symmetry_equiv_pos_as_xyz 'x,y,z'
loop_
_atom_site_label
_atom_site_fract_x
_atom_site_fract_y
_atom_site_fract_z
 C   0.69235992 0.50783539 0.81393433
 C   0.68809509 0.95345306 0.84618378
 H   0.69271851 0.93334961 0.86413574
 C   0.70690155 0.54664612 0.79939270
 N   0.70872498 0.98806000 0.84383392
Zn   0.75383759 0.50389099 0.87743378
 C   0.50779724 0.81537628 0.69095612
 C   0.95341492 0.81964874 0.65870667
 H   0.93331146 0.81502533 0.64075470
 C   0.54660797 0.80084229 0.70549011
 N   0.98802185 0.79901886 0.66105652
Zn   0.50385284 0.75387573 0.62744904
 C   0.81533813 0.99994659 0.81393433
 C   0.81961060 0.55432892 0.84618378
 H   0.81498718 0.57442474 0.86413574
 C   0.80080414 0.96113586 0.79939270
 H   0.77449799 0.96398926 0.78959656
 H   0.80094910 0.94250488 0.82064056
 H   0.81766510 0.95195007 0.77870941
 N   0.79898071 0.51972198 0.84383392
 C   0.99990845 0.69239807 0.69095612
 C   0.55429077 0.68813324 0.65870667
 H   0.57438660 0.69275665 0.64075470
 C   0.96109772 0.70693970 0.70549011
 H   0.96395111 0.73324585 0.71529388
 H   0.94246674 0.70679474 0.68424988
 H   0.95191193 0.69007874 0.72618103
 N   0.51968384 0.70876312 0.66105652
 C   0.69235992 0.99994659 0.69095612
 C   0.68809509 0.55432892 0.65870667
 H   0.69271851 0.57442474 0.64075470
 C   0.70690155 0.96113586 0.70549011
 N   0.70872498 0.51972198 0.66105652
Zn   0.75383759 0.50389099 0.62744904
 C   0.99990845 0.81537628 0.81393433
 C   0.55429077 0.81964874 0.84618378
 H   0.57438660 0.81502533 0.86413574
 C   0.96109772 0.80084229 0.79939270
 N   0.51968384 0.79901886 0.84383392
Zn   0.50385284 0.75387573 0.87743378
 C   0.81533813 0.50783539 0.69095612
 C   0.81961060 0.95345306 0.65870667
 H   0.81498718 0.93334961 0.64075470
 C   0.80080414 0.54664612 0.70549011
 H   0.77449799 0.54379272 0.71529388
 H   0.80094910 0.56527710 0.68424988
 H   0.81766510 0.55583191 0.72618103
 N   0.79898071 0.98806000 0.66105652
 C   0.50779724 0.69239807 0.81393433
 C   0.95341492 0.68813324 0.84618378
 H   0.93331146 0.69275665 0.86413574
 C   0.54660797 0.70693970 0.79939270
 H   0.54375458 0.73324585 0.78959656
 H   0.56523895 0.70679474 0.82064056
 H   0.55579376 0.69007874 0.77870941
 N   0.98802185 0.70876312 0.84383392
 C   0.81533813 0.69239807 0.50638580
 C   0.84759521 0.68813324 0.95200348
 H   0.86554718 0.69275665 0.93190765
 C   0.80080414 0.70693970 0.54520416
 N   0.84523773 0.70876312 0.98661041
Zn   0.87884521 0.75387573 0.50244141
 C   0.69235992 0.69239807 0.99850464
 C   0.68809509 0.66014862 0.55287933
 H   0.69271851 0.64219666 0.57298279
 C   0.70690155 0.70693970 0.95968628
 H   0.73320770 0.71673584 0.96253967
 H   0.70675659 0.68569183 0.94106293
 H   0.69004059 0.72762299 0.95050812
 N   0.70872498 0.66250610 0.51828003
Zn   0.75383759 0.62889862 0.50244141
 C   0.69235992 0.81537628 0.50638580
 C   0.66011047 0.81964874 0.95200348
 H   0.64215851 0.81502533 0.93190765
 C   0.70690155 0.80084229 0.54520416
 N   0.66246796 0.79901886 0.98661041
Zn   0.62886047 0.75387573 0.50244141
 C   0.81533813 0.81537628 0.99850464
 C   0.81961060 0.84763336 0.55287933
 H   0.81498718 0.86558533 0.57298279
 C   0.80080414 0.80084229 0.95968628
 H   0.77449799 0.79103851 0.96253967
 H   0.80094910 0.82209015 0.94106293
 H   0.81766510 0.78015137 0.95050812
 N   0.79898071 0.84527588 0.51828003
Zn   0.75383759 0.87888336 0.50244141
 C   0.84759521 0.81964874 0.55287933
 H   0.86554718 0.81502533 0.57298279
 N   0.84523773 0.79901886 0.51828003
 C   0.81961060 0.66014862 0.95200348
 H   0.81498718 0.64219666 0.93190765
 H   0.77449799 0.71673584 0.54235077
 H   0.80094910 0.68569183 0.56382751
 H   0.81766510 0.72762299 0.55438232
 N   0.79898071 0.66250610 0.98661041
 C   0.66011047 0.68813324 0.55287933
 H   0.64215851 0.69275665 0.57298279
 N   0.66246796 0.70876312 0.51828003
 C   0.68809509 0.84763336 0.95200348
 H   0.69271851 0.86558533 0.93190765
 H   0.73320770 0.79103851 0.54235077
 H   0.70675659 0.82209015 0.56382751
 H   0.69004059 0.78015137 0.55438232
 N   0.70872498 0.84527588 0.98661041
 C   0.95341492 0.84763336 0.68669128
 H   0.93331146 0.86558533 0.69130707
 H   0.54375458 0.79103851 0.73180389
 H   0.56523895 0.82209015 0.70534515
 H   0.55579376 0.78015137 0.68862915
 N   0.98802185 0.84527588 0.70732117
Zn   0.50385284 0.87888336 0.75242615
 C   0.95341492 0.66014862 0.81819916
 H   0.93331146 0.64219666 0.81358337
 N   0.98802185 0.66250610 0.79756927
Zn   0.50385284 0.62889862 0.75242615
 C   0.66011047 0.55432892 0.68669128
 H   0.64215851 0.57442474 0.69130707
 H   0.71669769 0.96398926 0.73180389
 H   0.68565369 0.94250488 0.70534515
 H   0.72758484 0.95195007 0.68862915
 N   0.66246796 0.51972198 0.70732117
Zn   0.62886047 0.50389099 0.75242615
 C   0.55429077 0.84763336 0.81819916
 H   0.57438660 0.86558533 0.81358337
 H   0.96395111 0.79103851 0.77308655
 H   0.94246674 0.82209015 0.79954529
 H   0.95191193 0.78015137 0.81626129
 N   0.51968384 0.84527588 0.79756927
 C   0.84759521 0.95345306 0.68669128
 H   0.86554718 0.93334961 0.69130707
 N   0.84523773 0.98806000 0.70732117
Zn   0.87884521 0.50389099 0.75242615
 C   0.55429077 0.66014862 0.68669128
 H   0.57438660 0.64219666 0.69130707
 N   0.51968384 0.66250610 0.70732117
 C   0.66011047 0.95345306 0.81819916
 H   0.64215851 0.93334961 0.81358337
 H   0.71669769 0.54379272 0.77308655
 H   0.68565369 0.56527710 0.79954529
 H   0.72758484 0.55583191 0.81626129
 N   0.66246796 0.98806000 0.79756927
 C   0.84759521 0.55432892 0.81819916
 H   0.86554718 0.57442474 0.81358337
 N   0.84523773 0.51972198 0.79756927
 C   0.94237518 0.75785065 0.56391907
 C   0.93811035 0.70346832 0.59619904
 H   0.94270325 0.68333435 0.61415100
 C   0.95691681 0.79663086 0.54937744
 H   0.98319244 0.79377747 0.53958130
 H   0.95674133 0.81529236 0.57065582
 H   0.94005585 0.80584717 0.52869415
 N   0.95870972 0.73804474 0.59384918
 C   0.75781250 0.56536102 0.94097137
 C   0.70343018 0.56963348 0.90869141
 H   0.68330383 0.56504059 0.89073944
 C   0.79659271 0.55082703 0.95550537
 N   0.73800659 0.54903412 0.91104126
 C   0.56532288 0.74993134 0.56391907
 C   0.56959534 0.80431366 0.59619904
 H   0.56500244 0.82444000 0.61415100
 C   0.55078888 0.71114349 0.54937744
 H   0.52451324 0.71400452 0.53958130
 H   0.55096436 0.69248962 0.57065582
 H   0.56764984 0.70193481 0.52869415
 N   0.54899597 0.76973724 0.59384918
 C   0.74989319 0.94241333 0.94097137
 C   0.80427551 0.93814850 0.90869141
 H   0.82440186 0.94274139 0.89073944
 C   0.71110535 0.95695496 0.95550537
 H   0.71396637 0.98323059 0.96530914
 H   0.69245148 0.95677948 0.93423462
 H   0.70189667 0.94009399 0.97619629
 N   0.76969910 0.95874786 0.91104126
 C   0.94237518 0.74993134 0.94097137
 C   0.93811035 0.80431366 0.90869141
 H   0.94270325 0.82444000 0.89073944
 C   0.95691681 0.71114349 0.95550537
 H   0.98319244 0.71400452 0.96530914
 H   0.95674133 0.69248962 0.93423462
 H   0.94005585 0.70193481 0.97619629
 N   0.95870972 0.76973724 0.91104126
 C   0.74989319 0.56536102 0.56391907
 C   0.80427551 0.56963348 0.59619904
 H   0.82440186 0.56504059 0.61415100
 C   0.71110535 0.55082703 0.54937744
 N   0.76969910 0.54903412 0.59384918
 C   0.56532288 0.75785065 0.94097137
 C   0.56959534 0.70346832 0.90869141
 H   0.56500244 0.68333435 0.89073944
 C   0.55078888 0.79663086 0.95550537
 N   0.54899597 0.73804474 0.91104126
 C   0.75781250 0.94241333 0.56391907
 C   0.70343018 0.93814850 0.59619904
 H   0.68330383 0.94274139 0.61415100
 C   0.79659271 0.95695496 0.54937744
 N   0.73800659 0.95874786 0.59384918
 C   0.56532288 0.94241333 0.75640106
 C   0.59761047 0.93814850 0.70201874
 H   0.61555481 0.94274139 0.68189240
 C   0.55078888 0.95695496 0.79518890
 N   0.59525299 0.95874786 0.73659515
 C   0.94237518 0.94241333 0.74848938
 C   0.93811035 0.91013336 0.80287170
 H   0.94270325 0.89218140 0.82299805
 C   0.95691681 0.95695496 0.70970154
 H   0.98319244 0.96675110 0.71255493
 H   0.95674133 0.93567657 0.69104767
 H   0.94005585 0.97763824 0.70049286
 N   0.95870972 0.91249084 0.76828766
 C   0.94237518 0.56536102 0.75640106
 C   0.91009521 0.56963348 0.70201874
 H   0.89214325 0.56504059 0.68189240
 C   0.95691681 0.55082703 0.79518890
 N   0.91245270 0.54903412 0.73659515
 C   0.56532288 0.56536102 0.74848938
 C   0.56959534 0.59764862 0.80287170
 H   0.56500244 0.61559296 0.82299805
 C   0.55078888 0.55082703 0.70970154
 H   0.52451324 0.54103088 0.71255493
 H   0.55096436 0.57210541 0.69104767
 H   0.56764984 0.53013611 0.70049286
 N   0.54899597 0.59529114 0.76828766
 C   0.59761047 0.56963348 0.80287170
 H   0.61555481 0.56504059 0.82299805
 N   0.59525299 0.54903412 0.76828766
 C   0.56959534 0.91013336 0.70201874
 H   0.56500244 0.89218140 0.68189240
 H   0.52451324 0.96675110 0.79233551
 H   0.55096436 0.93567657 0.81384277
 H   0.56764984 0.97763824 0.80439758
 N   0.54899597 0.91249084 0.73659515
 C   0.91009521 0.93814850 0.80287170
 H   0.89214325 0.94274139 0.82299805
 N   0.91245270 0.95874786 0.76828766
 C   0.93811035 0.59764862 0.70201874
 H   0.94270325 0.61559296 0.68189240
 H   0.98319244 0.54103088 0.79233551
 H   0.95674133 0.57210541 0.81384277
 H   0.94005585 0.53013611 0.80439758
 N   0.95870972 0.59529114 0.73659515
 C   0.70343018 0.59764862 0.93670654
 H   0.68330383 0.61559296 0.94129181
 H   0.79373932 0.54103088 0.98178864
 H   0.81525421 0.57210541 0.95532990
 H   0.80580902 0.53013611 0.93864441
 N   0.73800659 0.59529114 0.95730591
 C   0.70343018 0.91013336 0.56818390
 H   0.68330383 0.89218140 0.56359100
 H   0.79373932 0.96675110 0.52310181
 H   0.81525421 0.93567657 0.54956055
 H   0.80580902 0.97763824 0.56624603
 N   0.73800659 0.91249084 0.54758453
 C   0.91009521 0.80431366 0.93670654
 H   0.89214325 0.82444000 0.94129181
 N   0.91245270 0.76973724 0.95730591
 C   0.80427551 0.59764862 0.56818390
 H   0.82440186 0.61559296 0.56359100
 H   0.71396637 0.54103088 0.52310181
 H   0.69245148 0.57210541 0.54956055
 H   0.70189667 0.53013611 0.56624603
 N   0.76969910 0.59529114 0.54758453
 C   0.59761047 0.70346832 0.93670654
 H   0.61555481 0.68333435 0.94129181
 H   0.54099274 0.79377747 0.98178864
 H   0.57206726 0.81529236 0.95532990
 H   0.53009796 0.80584717 0.93864441
 N   0.59525299 0.73804474 0.95730591
 C   0.80427551 0.91013336 0.93670654
 H   0.82440186 0.89218140 0.94129181
 N   0.76969910 0.91249084 0.95730591
 C   0.91009521 0.70346832 0.56818390
 H   0.89214325 0.68333435 0.56359100
 N   0.91245270 0.73804474 0.54758453
 C   0.59761047 0.80431366 0.56818390
 H   0.61555481 0.82444000 0.56359100
 N   0.59525299 0.76973724 0.54758453
 C   0.69235992 0.50783539 0.31393433
 C   0.68809509 0.95345306 0.34618378
 H   0.69271851 0.93334961 0.36413574
 C   0.70690155 0.54664612 0.29939270
 N   0.70872498 0.98806000 0.34383392
Zn   0.75386810 0.50389099 0.37743378
 C   0.50779724 0.81537628 0.19095612
 C   0.95341492 0.81964874 0.15870667
 H   0.93331146 0.81502533 0.14075470
 C   0.54660797 0.80084229 0.20549011
 N   0.98802185 0.79901886 0.16105652
Zn   0.50385284 0.75390625 0.12744904
 C   0.81533813 0.99994659 0.31393433
 C   0.81961060 0.55432892 0.34618378
 H   0.81498718 0.57442474 0.36413574
 C   0.80080414 0.96113586 0.29939270
 H   0.77449799 0.96398926 0.28959656
 H   0.80094910 0.94250488 0.32064056
 H   0.81766510 0.95195007 0.27870941
 N   0.79898071 0.51972198 0.34383392
 C   0.99990845 0.69239807 0.19095612
 C   0.55429077 0.68813324 0.15870667
 H   0.57438660 0.69275665 0.14075470
 C   0.96109772 0.70693970 0.20549011
 H   0.96395111 0.73324585 0.21529388
 H   0.94246674 0.70679474 0.18424988
 H   0.95191193 0.69007874 0.22618103
 N   0.51968384 0.70876312 0.16105652
 C   0.69235992 0.99994659 0.19095612
 C   0.68809509 0.55432892 0.15870667
 H   0.69271851 0.57442474 0.14075470
 C   0.70690155 0.96113586 0.20549011
 N   0.70872498 0.51972198 0.16105652
Zn   0.75386810 0.50389099 0.12744904
 C   0.99990845 0.81537628 0.31393433
 C   0.55429077 0.81964874 0.34618378
 H   0.57438660 0.81502533 0.36413574
 C   0.96109772 0.80084229 0.29939270
 N   0.51968384 0.79901886 0.34383392
Zn   0.50385284 0.75390625 0.37743378
 C   0.81533813 0.50783539 0.19095612
 C   0.81961060 0.95345306 0.15870667
 H   0.81498718 0.93334961 0.14075470
 C   0.80080414 0.54664612 0.20549011
 H   0.77449799 0.54379272 0.21529388
 H   0.80094910 0.56527710 0.18424988
 H   0.81766510 0.55583191 0.22618103
 N   0.79898071 0.98806000 0.16105652
 C   0.50779724 0.69239807 0.31393433
 C   0.95341492 0.68813324 0.34618378
 H   0.93331146 0.69275665 0.36413574
 C   0.54660797 0.70693970 0.29939270
 H   0.54375458 0.73324585 0.28959656
 H   0.56523895 0.70679474 0.32064056
 H   0.55579376 0.69007874 0.27870941
 N   0.98802185 0.70876312 0.34383392
 C   0.81533813 0.69239807 0.00638580
 C   0.84759521 0.68813324 0.45200348
 H   0.86554718 0.69275665 0.43190765
 C   0.80080414 0.70693970 0.04520416
 N   0.84523773 0.70876312 0.48661041
Zn   0.87884521 0.75390625 0.00244141
 C   0.69235992 0.69239807 0.49850464
 C   0.68809509 0.66014862 0.05287933
 H   0.69271851 0.64219666 0.07298279
 C   0.70690155 0.70693970 0.45968628
 H   0.73320770 0.71673584 0.46253967
 H   0.70675659 0.68569183 0.44106293
 H   0.69004059 0.72762299 0.45050812
 N   0.70872498 0.66250610 0.01828003
Zn   0.75386810 0.62889862 0.00244141
 C   0.69235992 0.81537628 0.00638580
 C   0.66011047 0.81964874 0.45200348
 H   0.64215851 0.81502533 0.43190765
 C   0.70690155 0.80084229 0.04520416
 N   0.66246796 0.79901886 0.48661041
Zn   0.62886047 0.75390625 0.00244141
 C   0.81533813 0.81537628 0.49850464
 C   0.81961060 0.84763336 0.05287933
 H   0.81498718 0.86558533 0.07298279
 C   0.80080414 0.80084229 0.45968628
 H   0.77449799 0.79103851 0.46253967
 H   0.80094910 0.82209015 0.44106293
 H   0.81766510 0.78015137 0.45050812
 N   0.79898071 0.84527588 0.01828003
Zn   0.75386810 0.87888336 0.00244141
 C   0.84759521 0.81964874 0.05287933
 H   0.86554718 0.81502533 0.07298279
 N   0.84523773 0.79901886 0.01828003
 C   0.81961060 0.66014862 0.45200348
 H   0.81498718 0.64219666 0.43190765
 H   0.77449799 0.71673584 0.04235077
 H   0.80094910 0.68569183 0.06382751
 H   0.81766510 0.72762299 0.05438232
 N   0.79898071 0.66250610 0.48661041
 C   0.66011047 0.68813324 0.05287933
 H   0.64215851 0.69275665 0.07298279
 N   0.66246796 0.70876312 0.01828003
 C   0.68809509 0.84763336 0.45200348
 H   0.69271851 0.86558533 0.43190765
 H   0.73320770 0.79103851 0.04235077
 H   0.70675659 0.82209015 0.06382751
 H   0.69004059 0.78015137 0.05438232
 N   0.70872498 0.84527588 0.48661041
 C   0.95341492 0.84763336 0.18669128
 H   0.93331146 0.86558533 0.19130707
 H   0.54375458 0.79103851 0.23180389
 H   0.56523895 0.82209015 0.20534515
 H   0.55579376 0.78015137 0.18862915
 N   0.98802185 0.84527588 0.20732117
Zn   0.50385284 0.87888336 0.25242615
 C   0.95341492 0.66014862 0.31819916
 H   0.93331146 0.64219666 0.31358337
 N   0.98802185 0.66250610 0.29756927
Zn   0.50385284 0.62889862 0.25242615
 C   0.66011047 0.55432892 0.18669128
 H   0.64215851 0.57442474 0.19130707
 H   0.71669769 0.96398926 0.23180389
 H   0.68565369 0.94250488 0.20534515
 H   0.72758484 0.95195007 0.18862915
 N   0.66246796 0.51972198 0.20732117
Zn   0.62886047 0.50389099 0.25242615
 C   0.55429077 0.84763336 0.31819916
 H   0.57438660 0.86558533 0.31358337
 H   0.96395111 0.79103851 0.27308655
 H   0.94246674 0.82209015 0.29954529
 H   0.95191193 0.78015137 0.31626129
 N   0.51968384 0.84527588 0.29756927
 C   0.84759521 0.95345306 0.18669128
 H   0.86554718 0.93334961 0.19130707
 N   0.84523773 0.98806000 0.20732117
Zn   0.87884521 0.50389099 0.25242615
 C   0.55429077 0.66014862 0.18669128
 H   0.57438660 0.64219666 0.19130707
 N   0.51968384 0.66250610 0.20732117
 C   0.66011047 0.95345306 0.31819916
 H   0.64215851 0.93334961 0.31358337
 H   0.71669769 0.54379272 0.27308655
 H   0.68565369 0.56527710 0.29954529
 H   0.72758484 0.55583191 0.31626129
 N   0.66246796 0.98806000 0.29756927
 C   0.84759521 0.55432892 0.31819916
 H   0.86554718 0.57442474 0.31358337
 N   0.84523773 0.51972198 0.29756927
 C   0.94237518 0.75785065 0.06391907
 C   0.93811035 0.70346832 0.09619904
 H   0.94270325 0.68333435 0.11415100
 C   0.95691681 0.79663086 0.04937744
 H   0.98319244 0.79377747 0.03958130
 H   0.95674133 0.81529236 0.07065582
 H   0.94005585 0.80584717 0.02869415
 N   0.95870972 0.73804474 0.09384918
 C   0.75781250 0.56536102 0.44097137
 C   0.70343018 0.56963348 0.40869141
 H   0.68330383 0.56504059 0.39073944
 C   0.79659271 0.55082703 0.45550537
 N   0.73800659 0.54903412 0.41104126
 C   0.56532288 0.74993134 0.06391907
 C   0.56959534 0.80431366 0.09619904
 H   0.56500244 0.82444000 0.11415100
 C   0.55078888 0.71114349 0.04937744
 H   0.52451324 0.71400452 0.03958130
 H   0.55096436 0.69248962 0.07065582
 H   0.56764984 0.70193481 0.02869415
 N   0.54899597 0.76973724 0.09384918
 C   0.74989319 0.94241333 0.44097137
 C   0.80427551 0.93814850 0.40869141
 H   0.82440186 0.94274139 0.39073944
 C   0.71110535 0.95695496 0.45550537
 H   0.71396637 0.98323059 0.46530914
 H   0.69245148 0.95677948 0.43423462
 H   0.70189667 0.94009399 0.47619629
 N   0.76969910 0.95874786 0.41104126
 C   0.94237518 0.74993134 0.44097137
 C   0.93811035 0.80431366 0.40869141
 H   0.94270325 0.82444000 0.39073944
 C   0.95691681 0.71114349 0.45550537
 H   0.98319244 0.71400452 0.46530914
 H   0.95674133 0.69248962 0.43423462
 H   0.94005585 0.70193481 0.47619629
 N   0.95870972 0.76973724 0.41104126
 C   0.74989319 0.56536102 0.06391907
 C   0.80427551 0.56963348 0.09619904
 H   0.82440186 0.56504059 0.11415100
 C   0.71110535 0.55082703 0.04937744
 N   0.76969910 0.54903412 0.09384918
 C   0.56532288 0.75785065 0.44097137
 C   0.56959534 0.70346832 0.40869141
 H   0.56500244 0.68333435 0.39073944
 C   0.55078888 0.79663086 0.45550537
 N   0.54899597 0.73804474 0.41104126
 C   0.75781250 0.94241333 0.06391907
 C   0.70343018 0.93814850 0.09619904
 H   0.68330383 0.94274139 0.11415100
 C   0.79659271 0.95695496 0.04937744
 N   0.73800659 0.95874786 0.09384918
 C   0.56532288 0.94241333 0.25640106
 C   0.59761047 0.93814850 0.20201874
 H   0.61555481 0.94274139 0.18189240
 C   0.55078888 0.95695496 0.29518890
 N   0.59525299 0.95874786 0.23659515
 C   0.94237518 0.94241333 0.24848938
 C   0.93811035 0.91013336 0.30287170
 H   0.94270325 0.89218140 0.32299805
 C   0.95691681 0.95695496 0.20970154
 H   0.98319244 0.96675110 0.21255493
 H   0.95674133 0.93567657 0.19104767
 H   0.94005585 0.97763824 0.20049286
 N   0.95870972 0.91249084 0.26828766
 C   0.94237518 0.56536102 0.25640106
 C   0.91009521 0.56963348 0.20201874
 H   0.89214325 0.56504059 0.18189240
 C   0.95691681 0.55082703 0.29518890
 N   0.91245270 0.54903412 0.23659515
 C   0.56532288 0.56536102 0.24848938
 C   0.56959534 0.59764862 0.30287170
 H   0.56500244 0.61559296 0.32299805
 C   0.55078888 0.55082703 0.20970154
 H   0.52451324 0.54103088 0.21255493
 H   0.55096436 0.57210541 0.19104767
 H   0.56764984 0.53013611 0.20049286
 N   0.54899597 0.59529114 0.26828766
 C   0.59761047 0.56963348 0.30287170
 H   0.61555481 0.56504059 0.32299805
 N   0.59525299 0.54903412 0.26828766
 C   0.56959534 0.91013336 0.20201874
 H   0.56500244 0.89218140 0.18189240
 H   0.52451324 0.96675110 0.29233551
 H   0.55096436 0.93567657 0.31384277
 H   0.56764984 0.97763824 0.30439758
 N   0.54899597 0.91249084 0.23659515
 C   0.91009521 0.93814850 0.30287170
 H   0.89214325 0.94274139 0.32299805
 N   0.91245270 0.95874786 0.26828766
 C   0.93811035 0.59764862 0.20201874
 H   0.94270325 0.61559296 0.18189240
 H   0.98319244 0.54103088 0.29233551
 H   0.95674133 0.57210541 0.31384277
 H   0.94005585 0.53013611 0.30439758
 N   0.95870972 0.59529114 0.23659515
 C   0.70343018 0.59764862 0.43670654
 H   0.68330383 0.61559296 0.44129181
 H   0.79373932 0.54103088 0.48178864
 H   0.81525421 0.57210541 0.45532990
 H   0.80580902 0.53013611 0.43864441
 N   0.73800659 0.59529114 0.45730591
 C   0.70343018 0.91013336 0.06818390
 H   0.68330383 0.89218140 0.06359100
 H   0.79373932 0.96675110 0.02310181
 H   0.81525421 0.93567657 0.04956055
 H   0.80580902 0.97763824 0.06624603
 N   0.73800659 0.91249084 0.04758453
 C   0.91009521 0.80431366 0.43670654
 H   0.89214325 0.82444000 0.44129181
 N   0.91245270 0.76973724 0.45730591
 C   0.80427551 0.59764862 0.06818390
 H   0.82440186 0.61559296 0.06359100
 H   0.71396637 0.54103088 0.02310181
 H   0.69245148 0.57210541 0.04956055
 H   0.70189667 0.53013611 0.06624603
 N   0.76969910 0.59529114 0.04758453
 C   0.59761047 0.70346832 0.43670654
 H   0.61555481 0.68333435 0.44129181
 H   0.54099274 0.79377747 0.48178864
 H   0.57206726 0.81529236 0.45532990
 H   0.53009796 0.80584717 0.43864441
 N   0.59525299 0.73804474 0.45730591
 C   0.80427551 0.91013336 0.43670654
 H   0.82440186 0.89218140 0.44129181
 N   0.76969910 0.91249084 0.45730591
 C   0.91009521 0.70346832 0.06818390
 H   0.89214325 0.68333435 0.06359100
 N   0.91245270 0.73804474 0.04758453
 C   0.59761047 0.80431366 0.06818390
 H   0.61555481 0.82444000 0.06359100
 N   0.59525299 0.76973724 0.04758453
 C   0.69235992 0.00783539 0.81393433
 C   0.68809509 0.45345306 0.84618378
 H   0.69271851 0.43334961 0.86413574
 C   0.70690155 0.04664612 0.79939270
 N   0.70872498 0.48806000 0.84383392
Zn   0.75386810 0.00389099 0.87743378
 C   0.50779724 0.31537628 0.69095612
 C   0.95341492 0.31964874 0.65870667
 H   0.93331146 0.31502533 0.64075470
 C   0.54660797 0.30084229 0.70549011
 N   0.98802185 0.29901886 0.66105652
Zn   0.50385284 0.25387573 0.62744904
 C   0.81533813 0.49994659 0.81393433
 C   0.81961060 0.05432892 0.84618378
 H   0.81498718 0.07442474 0.86413574
 C   0.80080414 0.46113586 0.79939270
 H   0.77449799 0.46398926 0.78959656
 H   0.80094910 0.44250488 0.82064056
 H   0.81766510 0.45195007 0.77870941
 N   0.79898071 0.01972198 0.84383392
 C   0.99990845 0.19239807 0.69095612
 C   0.55429077 0.18813324 0.65870667
 H   0.57438660 0.19275665 0.64075470
 C   0.96109772 0.20693970 0.70549011
 H   0.96395111 0.23324585 0.71529388
 H   0.94246674 0.20679474 0.68424988
 H   0.95191193 0.19007874 0.72618103
 N   0.51968384 0.20876312 0.66105652
 C   0.69235992 0.49994659 0.69095612
 C   0.68809509 0.05432892 0.65870667
 H   0.69271851 0.07442474 0.64075470
 C   0.70690155 0.46113586 0.70549011
 N   0.70872498 0.01972198 0.66105652
Zn   0.75386810 0.00389099 0.62744904
 C   0.99990845 0.31537628 0.81393433
 C   0.55429077 0.31964874 0.84618378
 H   0.57438660 0.31502533 0.86413574
 C   0.96109772 0.30084229 0.79939270
 N   0.51968384 0.29901886 0.84383392
Zn   0.50385284 0.25387573 0.87743378
 C   0.81533813 0.00783539 0.69095612
 C   0.81961060 0.45345306 0.65870667
 H   0.81498718 0.43334961 0.64075470
 C   0.80080414 0.04664612 0.70549011
 H   0.77449799 0.04379272 0.71529388
 H   0.80094910 0.06527710 0.68424988
 H   0.81766510 0.05583191 0.72618103
 N   0.79898071 0.48806000 0.66105652
 C   0.50779724 0.19239807 0.81393433
 C   0.95341492 0.18813324 0.84618378
 H   0.93331146 0.19275665 0.86413574
 C   0.54660797 0.20693970 0.79939270
 H   0.54375458 0.23324585 0.78959656
 H   0.56523895 0.20679474 0.82064056
 H   0.55579376 0.19007874 0.77870941
 N   0.98802185 0.20876312 0.84383392
 C   0.81533813 0.19239807 0.50638580
 C   0.84759521 0.18813324 0.95200348
 H   0.86554718 0.19275665 0.93190765
 C   0.80080414 0.20693970 0.54520416
 N   0.84523773 0.20876312 0.98661041
Zn   0.87884521 0.25387573 0.50244141
 C   0.69235992 0.19239807 0.99850464
 C   0.68809509 0.16014862 0.55287933
 H   0.69271851 0.14219666 0.57298279
 C   0.70690155 0.20693970 0.95968628
 H   0.73320770 0.21673584 0.96253967
 H   0.70675659 0.18569183 0.94106293
 H   0.69004059 0.22762299 0.95050812
 N   0.70872498 0.16250610 0.51828003
Zn   0.75386810 0.12889862 0.50244141
 C   0.69235992 0.31537628 0.50638580
 C   0.66011047 0.31964874 0.95200348
 H   0.64215851 0.31502533 0.93190765
 C   0.70690155 0.30084229 0.54520416
 N   0.66246796 0.29901886 0.98661041
Zn   0.62886047 0.25387573 0.50244141
 C   0.81533813 0.31537628 0.99850464
 C   0.81961060 0.34763336 0.55287933
 H   0.81498718 0.36558533 0.57298279
 C   0.80080414 0.30084229 0.95968628
 H   0.77449799 0.29103851 0.96253967
 H   0.80094910 0.32209015 0.94106293
 H   0.81766510 0.28015137 0.95050812
 N   0.79898071 0.34527588 0.51828003
Zn   0.75386810 0.37888336 0.50244141
 C   0.84759521 0.31964874 0.55287933
 H   0.86554718 0.31502533 0.57298279
 N   0.84523773 0.29901886 0.51828003
 C   0.81961060 0.16014862 0.95200348
 H   0.81498718 0.14219666 0.93190765
 H   0.77449799 0.21673584 0.54235077
 H   0.80094910 0.18569183 0.56382751
 H   0.81766510 0.22762299 0.55438232
 N   0.79898071 0.16250610 0.98661041
 C   0.66011047 0.18813324 0.55287933
 H   0.64215851 0.19275665 0.57298279
 N   0.66246796 0.20876312 0.51828003
 C   0.68809509 0.34763336 0.95200348
 H   0.69271851 0.36558533 0.93190765
 H   0.73320770 0.29103851 0.54235077
 H   0.70675659 0.32209015 0.56382751
 H   0.69004059 0.28015137 0.55438232
 N   0.70872498 0.34527588 0.98661041
 C   0.95341492 0.34763336 0.68669128
 H   0.93331146 0.36558533 0.69130707
 H   0.54375458 0.29103851 0.73180389
 H   0.56523895 0.32209015 0.70534515
 H   0.55579376 0.28015137 0.68862915
 N   0.98802185 0.34527588 0.70732117
Zn   0.50385284 0.37888336 0.75242615
 C   0.95341492 0.16014862 0.81819916
 H   0.93331146 0.14219666 0.81358337
 N   0.98802185 0.16250610 0.79756927
Zn   0.50385284 0.12889862 0.75242615
 C   0.66011047 0.05432892 0.68669128
 H   0.64215851 0.07442474 0.69130707
 H   0.71669769 0.46398926 0.73180389
 H   0.68565369 0.44250488 0.70534515
 H   0.72758484 0.45195007 0.68862915
 N   0.66246796 0.01972198 0.70732117
Zn   0.62886047 0.00389099 0.75242615
 C   0.55429077 0.34763336 0.81819916
 H   0.57438660 0.36558533 0.81358337
 H   0.96395111 0.29103851 0.77308655
 H   0.94246674 0.32209015 0.79954529
 H   0.95191193 0.28015137 0.81626129
 N   0.51968384 0.34527588 0.79756927
 C   0.84759521 0.45345306 0.68669128
 H   0.86554718 0.43334961 0.69130707
 N   0.84523773 0.48806000 0.70732117
Zn   0.87884521 0.00389099 0.75242615
 C   0.55429077 0.16014862 0.68669128
 H   0.57438660 0.14219666 0.69130707
 N   0.51968384 0.16250610 0.70732117
 C   0.66011047 0.45345306 0.81819916
 H   0.64215851 0.43334961 0.81358337
 H   0.71669769 0.04379272 0.77308655
 H   0.68565369 0.06527710 0.79954529
 H   0.72758484 0.05583191 0.81626129
 N   0.66246796 0.48806000 0.79756927
 C   0.84759521 0.05432892 0.81819916
 H   0.86554718 0.07442474 0.81358337
 N   0.84523773 0.01972198 0.79756927
 C   0.94237518 0.25785065 0.56391907
 C   0.93811035 0.20346832 0.59619904
 H   0.94270325 0.18333435 0.61415100
 C   0.95691681 0.29663086 0.54937744
 H   0.98319244 0.29377747 0.53958130
 H   0.95674133 0.31529236 0.57065582
 H   0.94005585 0.30584717 0.52869415
 N   0.95870972 0.23804474 0.59384918
 C   0.75781250 0.06536102 0.94097137
 C   0.70343018 0.06963348 0.90869141
 H   0.68330383 0.06504059 0.89073944
 C   0.79659271 0.05082703 0.95550537
 N   0.73800659 0.04903412 0.91104126
 C   0.56532288 0.24993134 0.56391907
 C   0.56959534 0.30431366 0.59619904
 H   0.56500244 0.32444000 0.61415100
 C   0.55078888 0.21114349 0.54937744
 H   0.52451324 0.21400452 0.53958130
 H   0.55096436 0.19248962 0.57065582
 H   0.56764984 0.20193481 0.52869415
 N   0.54899597 0.26973724 0.59384918
 C   0.74989319 0.44241333 0.94097137
 C   0.80427551 0.43814850 0.90869141
 H   0.82440186 0.44274139 0.89073944
 C   0.71110535 0.45695496 0.95550537
 H   0.71396637 0.48323059 0.96530914
 H   0.69245148 0.45677948 0.93423462
 H   0.70189667 0.44009399 0.97619629
 N   0.76969910 0.45874786 0.91104126
 C   0.94237518 0.24993134 0.94097137
 C   0.93811035 0.30431366 0.90869141
 H   0.94270325 0.32444000 0.89073944
 C   0.95691681 0.21114349 0.95550537
 H   0.98319244 0.21400452 0.96530914
 H   0.95674133 0.19248962 0.93423462
 H   0.94005585 0.20193481 0.97619629
 N   0.95870972 0.26973724 0.91104126
 C   0.74989319 0.06536102 0.56391907
 C   0.80427551 0.06963348 0.59619904
 H   0.82440186 0.06504059 0.61415100
 C   0.71110535 0.05082703 0.54937744
 N   0.76969910 0.04903412 0.59384918
 C   0.56532288 0.25785065 0.94097137
 C   0.56959534 0.20346832 0.90869141
 H   0.56500244 0.18333435 0.89073944
 C   0.55078888 0.29663086 0.95550537
 N   0.54899597 0.23804474 0.91104126
 C   0.75781250 0.44241333 0.56391907
 C   0.70343018 0.43814850 0.59619904
 H   0.68330383 0.44274139 0.61415100
 C   0.79659271 0.45695496 0.54937744
 N   0.73800659 0.45874786 0.59384918
 C   0.56532288 0.44241333 0.75640106
 C   0.59761047 0.43814850 0.70201874
 H   0.61555481 0.44274139 0.68189240
 C   0.55078888 0.45695496 0.79518890
 N   0.59525299 0.45874786 0.73659515
 C   0.94237518 0.44241333 0.74848938
 C   0.93811035 0.41013336 0.80287170
 H   0.94270325 0.39218140 0.82299805
 C   0.95691681 0.45695496 0.70970154
 H   0.98319244 0.46675110 0.71255493
 H   0.95674133 0.43567657 0.69104767
 H   0.94005585 0.47763824 0.70049286
 N   0.95870972 0.41249084 0.76828766
 C   0.94237518 0.06536102 0.75640106
 C   0.91009521 0.06963348 0.70201874
 H   0.89214325 0.06504059 0.68189240
 C   0.95691681 0.05082703 0.79518890
 N   0.91245270 0.04903412 0.73659515
 C   0.56532288 0.06536102 0.74848938
 C   0.56959534 0.09764862 0.80287170
 H   0.56500244 0.11559296 0.82299805
 C   0.55078888 0.05082703 0.70970154
 H   0.52451324 0.04103088 0.71255493
 H   0.55096436 0.07210541 0.69104767
 H   0.56764984 0.03013611 0.70049286
 N   0.54899597 0.09529114 0.76828766
 C   0.59761047 0.06963348 0.80287170
 H   0.61555481 0.06504059 0.82299805
 N   0.59525299 0.04903412 0.76828766
 C   0.56959534 0.41013336 0.70201874
 H   0.56500244 0.39218140 0.68189240
 H   0.52451324 0.46675110 0.79233551
 H   0.55096436 0.43567657 0.81384277
 H   0.56764984 0.47763824 0.80439758
 N   0.54899597 0.41249084 0.73659515
 C   0.91009521 0.43814850 0.80287170
 H   0.89214325 0.44274139 0.82299805
 N   0.91245270 0.45874786 0.76828766
 C   0.93811035 0.09764862 0.70201874
 H   0.94270325 0.11559296 0.68189240
 H   0.98319244 0.04103088 0.79233551
 H   0.95674133 0.07210541 0.81384277
 H   0.94005585 0.03013611 0.80439758
 N   0.95870972 0.09529114 0.73659515
 C   0.70343018 0.09764862 0.93670654
 H   0.68330383 0.11559296 0.94129181
 H   0.79373932 0.04103088 0.98178864
 H   0.81525421 0.07210541 0.95532990
 H   0.80580902 0.03013611 0.93864441
 N   0.73800659 0.09529114 0.95730591
 C   0.70343018 0.41013336 0.56818390
 H   0.68330383 0.39218140 0.56359100
 H   0.79373932 0.46675110 0.52310181
 H   0.81525421 0.43567657 0.54956055
 H   0.80580902 0.47763824 0.56624603
 N   0.73800659 0.41249084 0.54758453
 C   0.91009521 0.30431366 0.93670654
 H   0.89214325 0.32444000 0.94129181
 N   0.91245270 0.26973724 0.95730591
 C   0.80427551 0.09764862 0.56818390
 H   0.82440186 0.11559296 0.56359100
 H   0.71396637 0.04103088 0.52310181
 H   0.69245148 0.07210541 0.54956055
 H   0.70189667 0.03013611 0.56624603
 N   0.76969910 0.09529114 0.54758453
 C   0.59761047 0.20346832 0.93670654
 H   0.61555481 0.18333435 0.94129181
 H   0.54099274 0.29377747 0.98178864
 H   0.57206726 0.31529236 0.95532990
 H   0.53009796 0.30584717 0.93864441
 N   0.59525299 0.23804474 0.95730591
 C   0.80427551 0.41013336 0.93670654
 H   0.82440186 0.39218140 0.94129181
 N   0.76969910 0.41249084 0.95730591
 C   0.91009521 0.20346832 0.56818390
 H   0.89214325 0.18333435 0.56359100
 N   0.91245270 0.23804474 0.54758453
 C   0.59761047 0.30431366 0.56818390
 H   0.61555481 0.32444000 0.56359100
 N   0.59525299 0.26973724 0.54758453
 C   0.69235992 0.00783539 0.31393433
 C   0.68809509 0.45345306 0.34618378
 H   0.69271851 0.43334961 0.36413574
 C   0.70690155 0.04664612 0.29939270
 N   0.70872498 0.48806000 0.34383392
Zn   0.75386810 0.00389099 0.37743378
 C   0.50779724 0.31537628 0.19095612
 C   0.95341492 0.31964874 0.15870667
 H   0.93331146 0.31502533 0.14075470
 C   0.54660797 0.30084229 0.20549011
 N   0.98802185 0.29901886 0.16105652
Zn   0.50385284 0.25387573 0.12744904
 C   0.81533813 0.49994659 0.31393433
 C   0.81961060 0.05432892 0.34618378
 H   0.81498718 0.07442474 0.36413574
 C   0.80080414 0.46113586 0.29939270
 H   0.77449799 0.46398926 0.28959656
 H   0.80094910 0.44250488 0.32064056
 H   0.81766510 0.45195007 0.27870941
 N   0.79898071 0.01972198 0.34383392
 C   0.99990845 0.19239807 0.19095612
 C   0.55429077 0.18813324 0.15870667
 H   0.57438660 0.19275665 0.14075470
 C   0.96109772 0.20693970 0.20549011
 H   0.96395111 0.23324585 0.21529388
 H   0.94246674 0.20679474 0.18424988
 H   0.95191193 0.19007874 0.22618103
 N   0.51968384 0.20876312 0.16105652
 C   0.69235992 0.49994659 0.19095612
 C   0.68809509 0.05432892 0.15870667
 H   0.69271851 0.07442474 0.14075470
 C   0.70690155 0.46113586 0.20549011
 N   0.70872498 0.01972198 0.16105652
Zn   0.75386810 0.00389099 0.12744904
 C   0.99990845 0.31537628 0.31393433
 C   0.55429077 0.31964874 0.34618378
 H   0.57438660 0.31502533 0.36413574
 C   0.96109772 0.30084229 0.29939270
 N   0.51968384 0.29901886 0.34383392
Zn   0.50385284 0.25390625 0.37743378
 C   0.81533813 0.00783539 0.19095612
 C   0.81961060 0.45345306 0.15870667
 H   0.81498718 0.43334961 0.14075470
 C   0.80080414 0.04664612 0.20549011
 H   0.77449799 0.04379272 0.21529388
 H   0.80094910 0.06527710 0.18424988
 H   0.81766510 0.05583191 0.22618103
 N   0.79898071 0.48806000 0.16105652
 C   0.50779724 0.19239807 0.31393433
 C   0.95341492 0.18813324 0.34618378
 H   0.93331146 0.19275665 0.36413574
 C   0.54660797 0.20693970 0.29939270
 H   0.54375458 0.23324585 0.28959656
 H   0.56523895 0.20679474 0.32064056
 H   0.55579376 0.19007874 0.27870941
 N   0.98802185 0.20876312 0.34383392
 C   0.81533813 0.19239807 0.00638580
 C   0.84759521 0.18813324 0.45200348
 H   0.86554718 0.19275665 0.43190765
 C   0.80080414 0.20693970 0.04520416
 N   0.84523773 0.20876312 0.48661041
Zn   0.87884521 0.25387573 0.00244141
 C   0.69235992 0.19239807 0.49850464
 C   0.68809509 0.16014862 0.05287933
 H   0.69271851 0.14219666 0.07298279
 C   0.70690155 0.20693970 0.45968628
 H   0.73320770 0.21673584 0.46253967
 H   0.70675659 0.18569183 0.44106293
 H   0.69004059 0.22762299 0.45050812
 N   0.70872498 0.16250610 0.01828003
Zn   0.75386810 0.12889862 0.00244141
 C   0.69235992 0.31537628 0.00638580
 C   0.66011047 0.31964874 0.45200348
 H   0.64215851 0.31502533 0.43190765
 C   0.70690155 0.30084229 0.04520416
 N   0.66246796 0.29901886 0.48661041
Zn   0.62886047 0.25387573 0.00244141
 C   0.81533813 0.31537628 0.49850464
 C   0.81961060 0.34763336 0.05287933
 H   0.81498718 0.36558533 0.07298279
 C   0.80080414 0.30084229 0.45968628
 H   0.77449799 0.29103851 0.46253967
 H   0.80094910 0.32209015 0.44106293
 H   0.81766510 0.28015137 0.45050812
 N   0.79898071 0.34527588 0.01828003
Zn   0.75386810 0.37888336 0.00244141
 C   0.84759521 0.31964874 0.05287933
 H   0.86554718 0.31502533 0.07298279
 N   0.84523773 0.29901886 0.01828003
 C   0.81961060 0.16014862 0.45200348
 H   0.81498718 0.14219666 0.43190765
 H   0.77449799 0.21673584 0.04235077
 H   0.80094910 0.18569183 0.06382751
 H   0.81766510 0.22762299 0.05438232
 N   0.79898071 0.16250610 0.48661041
 C   0.66011047 0.18813324 0.05287933
 H   0.64215851 0.19275665 0.07298279
 N   0.66246796 0.20876312 0.01828003
 C   0.68809509 0.34763336 0.45200348
 H   0.69271851 0.36558533 0.43190765
 H   0.73320770 0.29103851 0.04235077
 H   0.70675659 0.32209015 0.06382751
 H   0.69004059 0.28015137 0.05438232
 N   0.70872498 0.34527588 0.48661041
 C   0.95341492 0.34763336 0.18669128
 H   0.93331146 0.36558533 0.19130707
 H   0.54375458 0.29103851 0.23180389
 H   0.56523895 0.32209015 0.20534515
 H   0.55579376 0.28015137 0.18862915
 N   0.98802185 0.34527588 0.20732117
Zn   0.50385284 0.37888336 0.25242615
 C   0.95341492 0.16014862 0.31819916
 H   0.93331146 0.14219666 0.31358337
 N   0.98802185 0.16250610 0.29756927
Zn   0.50385284 0.12889862 0.25242615
 C   0.66011047 0.05432892 0.18669128
 H   0.64215851 0.07442474 0.19130707
 H   0.71669769 0.46398926 0.23180389
 H   0.68565369 0.44250488 0.20534515
 H   0.72758484 0.45195007 0.18862915
 N   0.66246796 0.01972198 0.20732117
Zn   0.62886047 0.00389099 0.25242615
 C   0.55429077 0.34763336 0.31819916
 H   0.57438660 0.36558533 0.31358337
 H   0.96395111 0.29103851 0.27308655
 H   0.94246674 0.32209015 0.29954529
 H   0.95191193 0.28015137 0.31626129
 N   0.51968384 0.34527588 0.29756927
 C   0.84759521 0.45345306 0.18669128
 H   0.86554718 0.43334961 0.19130707
 N   0.84523773 0.48806000 0.20732117
Zn   0.87884521 0.00389099 0.25242615
 C   0.55429077 0.16014862 0.18669128
 H   0.57438660 0.14219666 0.19130707
 N   0.51968384 0.16250610 0.20732117
 C   0.66011047 0.45345306 0.31819916
 H   0.64215851 0.43334961 0.31358337
 H   0.71669769 0.04379272 0.27308655
 H   0.68565369 0.06527710 0.29954529
 H   0.72758484 0.05583191 0.31626129
 N   0.66246796 0.48806000 0.29756927
 C   0.84759521 0.05432892 0.31819916
 H   0.86554718 0.07442474 0.31358337
 N   0.84523773 0.01972198 0.29756927
 C   0.94237518 0.25785065 0.06391907
 C   0.93811035 0.20346832 0.09619904
 H   0.94270325 0.18333435 0.11415100
 C   0.95691681 0.29663086 0.04937744
 H   0.98319244 0.29377747 0.03958130
 H   0.95674133 0.31529236 0.07065582
 H   0.94005585 0.30584717 0.02869415
 N   0.95870972 0.23804474 0.09384918
 C   0.75781250 0.06536102 0.44097137
 C   0.70343018 0.06963348 0.40869141
 H   0.68330383 0.06504059 0.39073944
 C   0.79659271 0.05082703 0.45550537
 N   0.73800659 0.04903412 0.41104126
 C   0.56532288 0.24993134 0.06391907
 C   0.56959534 0.30431366 0.09619904
 H   0.56500244 0.32444000 0.11415100
 C   0.55078888 0.21114349 0.04937744
 H   0.52451324 0.21400452 0.03958130
 H   0.55096436 0.19248962 0.07065582
 H   0.56764984 0.20193481 0.02869415
 N   0.54899597 0.26973724 0.09384918
 C   0.74989319 0.44241333 0.44097137
 C   0.80427551 0.43814850 0.40869141
 H   0.82440186 0.44274139 0.39073944
 C   0.71110535 0.45695496 0.45550537
 H   0.71396637 0.48323059 0.46530914
 H   0.69245148 0.45677948 0.43423462
 H   0.70189667 0.44009399 0.47619629
 N   0.76969910 0.45874786 0.41104126
 C   0.94237518 0.24993134 0.44097137
 C   0.93811035 0.30431366 0.40869141
 H   0.94270325 0.32444000 0.39073944
 C   0.95691681 0.21114349 0.45550537
 H   0.98319244 0.21400452 0.46530914
 H   0.95674133 0.19248962 0.43423462
 H   0.94005585 0.20193481 0.47619629
 N   0.95870972 0.26973724 0.41104126
 C   0.74989319 0.06536102 0.06391907
 C   0.80427551 0.06963348 0.09619904
 H   0.82440186 0.06504059 0.11415100
 C   0.71110535 0.05082703 0.04937744
 N   0.76969910 0.04903412 0.09384918
 C   0.56532288 0.25785065 0.44097137
 C   0.56959534 0.20346832 0.40869141
 H   0.56500244 0.18333435 0.39073944
 C   0.55078888 0.29663086 0.45550537
 N   0.54899597 0.23804474 0.41104126
 C   0.75781250 0.44241333 0.06391907
 C   0.70343018 0.43814850 0.09619904
 H   0.68330383 0.44274139 0.11415100
 C   0.79659271 0.45695496 0.04937744
 N   0.73800659 0.45874786 0.09384918
 C   0.56532288 0.44241333 0.25640106
 C   0.59761047 0.43814850 0.20201874
 H   0.61555481 0.44274139 0.18189240
 C   0.55078888 0.45695496 0.29518890
 N   0.59525299 0.45874786 0.23659515
 C   0.94237518 0.44241333 0.24848938
 C   0.93811035 0.41013336 0.30287170
 H   0.94270325 0.39218140 0.32299805
 C   0.95691681 0.45695496 0.20970154
 H   0.98319244 0.46675110 0.21255493
 H   0.95674133 0.43567657 0.19104767
 H   0.94005585 0.47763824 0.20049286
 N   0.95870972 0.41249084 0.26828766
 C   0.94237518 0.06536102 0.25640106
 C   0.91009521 0.06963348 0.20201874
 H   0.89214325 0.06504059 0.18189240
 C   0.95691681 0.05082703 0.29518890
 N   0.91245270 0.04903412 0.23659515
 C   0.56532288 0.06536102 0.24848938
 C   0.56959534 0.09764862 0.30287170
 H   0.56500244 0.11559296 0.32299805
 C   0.55078888 0.05082703 0.20970154
 H   0.52451324 0.04103088 0.21255493
 H   0.55096436 0.07210541 0.19104767
 H   0.56764984 0.03013611 0.20049286
 N   0.54899597 0.09529114 0.26828766
 C   0.59761047 0.06963348 0.30287170
 H   0.61555481 0.06504059 0.32299805
 N   0.59525299 0.04903412 0.26828766
 C   0.56959534 0.41013336 0.20201874
 H   0.56500244 0.39218140 0.18189240
 H   0.52451324 0.46675110 0.29233551
 H   0.55096436 0.43567657 0.31384277
 H   0.56764984 0.47763824 0.30439758
 N   0.54899597 0.41249084 0.23659515
 C   0.91009521 0.43814850 0.30287170
 H   0.89214325 0.44274139 0.32299805
 N   0.91245270 0.45874786 0.26828766
 C   0.93811035 0.09764862 0.20201874
 H   0.94270325 0.11559296 0.18189240
 H   0.98319244 0.04103088 0.29233551
 H   0.95674133 0.07210541 0.31384277
 H   0.94005585 0.03013611 0.30439758
 N   0.95870972 0.09529114 0.23659515
 C   0.70343018 0.09764862 0.43670654
 H   0.68330383 0.11559296 0.44129181
 H   0.79373932 0.04103088 0.48178864
 H   0.81525421 0.07210541 0.45532990
 H   0.80580902 0.03013611 0.43864441
 N   0.73800659 0.09529114 0.45730591
 C   0.70343018 0.41013336 0.06818390
 H   0.68330383 0.39218140 0.06359100
 H   0.79373932 0.46675110 0.02310181
 H   0.81525421 0.43567657 0.04956055
 H   0.80580902 0.47763824 0.06624603
 N   0.73800659 0.41249084 0.04758453
 C   0.91009521 0.30431366 0.43670654
 H   0.89214325 0.32444000 0.44129181
 N   0.91245270 0.26973724 0.45730591
 C   0.80427551 0.09764862 0.06818390
 H   0.82440186 0.11559296 0.06359100
 H   0.71396637 0.04103088 0.02310181
 H   0.69245148 0.07210541 0.04956055
 H   0.70189667 0.03013611 0.06624603
 N   0.76969910 0.09529114 0.04758453
 C   0.59761047 0.20346832 0.43670654
 H   0.61555481 0.18333435 0.44129181
 H   0.54099274 0.29377747 0.48178864
 H   0.57206726 0.31529236 0.45532990
 H   0.53009796 0.30584717 0.43864441
 N   0.59525299 0.23804474 0.45730591
 C   0.80427551 0.41013336 0.43670654
 H   0.82440186 0.39218140 0.44129181
 N   0.76969910 0.41249084 0.45730591
 C   0.91009521 0.20346832 0.06818390
 H   0.89214325 0.18333435 0.06359100
 N   0.91245270 0.23804474 0.04758453
 C   0.59761047 0.30431366 0.06818390
 H   0.61555481 0.32444000 0.06359100
 N   0.59525299 0.26973724 0.04758453
 C   0.19235992 0.50783539 0.81393433
 C   0.18809509 0.95345306 0.84618378
 H   0.19271851 0.93334961 0.86413574
 C   0.20690155 0.54664612 0.79939270
 N   0.20872498 0.98806000 0.84383392
Zn   0.25383759 0.50389099 0.87743378
 C   0.00779724 0.81537628 0.69095612
 C   0.45341492 0.81964874 0.65870667
 H   0.43331146 0.81502533 0.64075470
 C   0.04660797 0.80084229 0.70549011
 N   0.48802185 0.79901886 0.66105652
Zn   0.00385284 0.75387573 0.62744904
 C   0.31533813 0.99994659 0.81393433
 C   0.31961060 0.55432892 0.84618378
 H   0.31498718 0.57442474 0.86413574
 C   0.30080414 0.96113586 0.79939270
 H   0.27449799 0.96398926 0.78959656
 H   0.30094910 0.94250488 0.82064056
 H   0.31766510 0.95195007 0.77870941
 N   0.29898071 0.51972198 0.84383392
 C   0.49990845 0.69239807 0.69095612
 C   0.05429077 0.68813324 0.65870667
 H   0.07438660 0.69275665 0.64075470
 C   0.46109772 0.70693970 0.70549011
 H   0.46395111 0.73324585 0.71529388
 H   0.44246674 0.70679474 0.68424988
 H   0.45191193 0.69007874 0.72618103
 N   0.01968384 0.70876312 0.66105652
 C   0.19235992 0.99994659 0.69095612
 C   0.18809509 0.55432892 0.65870667
 H   0.19271851 0.57442474 0.64075470
 C   0.20690155 0.96113586 0.70549011
 N   0.20872498 0.51972198 0.66105652
Zn   0.25383759 0.50389099 0.62744904
 C   0.49990845 0.81537628 0.81393433
 C   0.05429077 0.81964874 0.84618378
 H   0.07438660 0.81502533 0.86413574
 C   0.46109772 0.80084229 0.79939270
 N   0.01968384 0.79901886 0.84383392
Zn   0.00385284 0.75387573 0.87743378
 C   0.31533813 0.50783539 0.69095612
 C   0.31961060 0.95345306 0.65870667
 H   0.31498718 0.93334961 0.64075470
 C   0.30080414 0.54664612 0.70549011
 H   0.27449799 0.54379272 0.71529388
 H   0.30094910 0.56527710 0.68424988
 H   0.31766510 0.55583191 0.72618103
 N   0.29898071 0.98806000 0.66105652
 C   0.00779724 0.69239807 0.81393433
 C   0.45341492 0.68813324 0.84618378
 H   0.43331146 0.69275665 0.86413574
 C   0.04660797 0.70693970 0.79939270
 H   0.04375458 0.73324585 0.78959656
 H   0.06523895 0.70679474 0.82064056
 H   0.05579376 0.69007874 0.77870941
 N   0.48802185 0.70876312 0.84383392
 C   0.31533813 0.69239807 0.50638580
 C   0.34759521 0.68813324 0.95200348
 H   0.36554718 0.69275665 0.93190765
 C   0.30080414 0.70693970 0.54520416
 N   0.34523773 0.70876312 0.98661041
Zn   0.37884521 0.75387573 0.50244141
 C   0.19235992 0.69239807 0.99850464
 C   0.18809509 0.66014862 0.55287933
 H   0.19271851 0.64219666 0.57298279
 C   0.20690155 0.70693970 0.95968628
 H   0.23320770 0.71673584 0.96253967
 H   0.20675659 0.68569183 0.94106293
 H   0.19004059 0.72762299 0.95050812
 N   0.20872498 0.66250610 0.51828003
Zn   0.25383759 0.62889862 0.50244141
 C   0.19235992 0.81537628 0.50638580
 C   0.16011047 0.81964874 0.95200348
 H   0.14215851 0.81502533 0.93190765
 C   0.20690155 0.80084229 0.54520416
 N   0.16246796 0.79901886 0.98661041
Zn   0.12886047 0.75387573 0.50244141
 C   0.31533813 0.81537628 0.99850464
 C   0.31961060 0.84763336 0.55287933
 H   0.31498718 0.86558533 0.57298279
 C   0.30080414 0.80084229 0.95968628
 H   0.27449799 0.79103851 0.96253967
 H   0.30094910 0.82209015 0.94106293
 H   0.31766510 0.78015137 0.95050812
 N   0.29898071 0.84527588 0.51828003
Zn   0.25383759 0.87888336 0.50244141
 C   0.34759521 0.81964874 0.55287933
 H   0.36554718 0.81502533 0.57298279
 N   0.34523773 0.79901886 0.51828003
 C   0.31961060 0.66014862 0.95200348
 H   0.31498718 0.64219666 0.93190765
 H   0.27449799 0.71673584 0.54235077
 H   0.30094910 0.68569183 0.56382751
 H   0.31766510 0.72762299 0.55438232
 N   0.29898071 0.66250610 0.98661041
 C   0.16011047 0.68813324 0.55287933
 H   0.14215851 0.69275665 0.57298279
 N   0.16246796 0.70876312 0.51828003
 C   0.18809509 0.84763336 0.95200348
 H   0.19271851 0.86558533 0.93190765
 H   0.23320770 0.79103851 0.54235077
 H   0.20675659 0.82209015 0.56382751
 H   0.19004059 0.78015137 0.55438232
 N   0.20872498 0.84527588 0.98661041
 C   0.45341492 0.84763336 0.68669128
 H   0.43331146 0.86558533 0.69130707
 H   0.04375458 0.79103851 0.73180389
 H   0.06523895 0.82209015 0.70534515
 H   0.05579376 0.78015137 0.68862915
 N   0.48802185 0.84527588 0.70732117
Zn   0.00385284 0.87888336 0.75242615
 C   0.45341492 0.66014862 0.81819916
 H   0.43331146 0.64219666 0.81358337
 N   0.48802185 0.66250610 0.79756927
Zn   0.00385284 0.62889862 0.75242615
 C   0.16011047 0.55432892 0.68669128
 H   0.14215851 0.57442474 0.69130707
 H   0.21669769 0.96398926 0.73180389
 H   0.18565369 0.94250488 0.70534515
 H   0.22758484 0.95195007 0.68862915
 N   0.16246796 0.51972198 0.70732117
Zn   0.12886047 0.50389099 0.75242615
 C   0.05429077 0.84763336 0.81819916
 H   0.07438660 0.86558533 0.81358337
 H   0.46395111 0.79103851 0.77308655
 H   0.44246674 0.82209015 0.79954529
 H   0.45191193 0.78015137 0.81626129
 N   0.01968384 0.84527588 0.79756927
 C   0.34759521 0.95345306 0.68669128
 H   0.36554718 0.93334961 0.69130707
 N   0.34523773 0.98806000 0.70732117
Zn   0.37884521 0.50389099 0.75242615
 C   0.05429077 0.66014862 0.68669128
 H   0.07438660 0.64219666 0.69130707
 N   0.01968384 0.66250610 0.70732117
 C   0.16011047 0.95345306 0.81819916
 H   0.14215851 0.93334961 0.81358337
 H   0.21669769 0.54379272 0.77308655
 H   0.18565369 0.56527710 0.79954529
 H   0.22758484 0.55583191 0.81626129
 N   0.16246796 0.98806000 0.79756927
 C   0.34759521 0.55432892 0.81819916
 H   0.36554718 0.57442474 0.81358337
 N   0.34523773 0.51972198 0.79756927
 C   0.44237518 0.75785065 0.56391907
 C   0.43811035 0.70346832 0.59619904
 H   0.44270325 0.68333435 0.61415100
 C   0.45691681 0.79663086 0.54937744
 H   0.48319244 0.79377747 0.53958130
 H   0.45674133 0.81529236 0.57065582
 H   0.44005585 0.80584717 0.52869415
 N   0.45870972 0.73804474 0.59384918
 C   0.25781250 0.56536102 0.94097137
 C   0.20343018 0.56963348 0.90869141
 H   0.18330383 0.56504059 0.89073944
 C   0.29659271 0.55082703 0.95550537
 N   0.23800659 0.54903412 0.91104126
 C   0.06532288 0.74993134 0.56391907
 C   0.06959534 0.80431366 0.59619904
 H   0.06500244 0.82444000 0.61415100
 C   0.05078888 0.71114349 0.54937744
 H   0.02451324 0.71400452 0.53958130
 H   0.05096436 0.69248962 0.57065582
 H   0.06764984 0.70193481 0.52869415
 N   0.04899597 0.76973724 0.59384918
 C   0.24989319 0.94241333 0.94097137
 C   0.30427551 0.93814850 0.90869141
 H   0.32440186 0.94274139 0.89073944
 C   0.21110535 0.95695496 0.95550537
 H   0.21396637 0.98323059 0.96530914
 H   0.19245148 0.95677948 0.93423462
 H   0.20189667 0.94009399 0.97619629
 N   0.26969910 0.95874786 0.91104126
 C   0.44237518 0.74993134 0.94097137
 C   0.43811035 0.80431366 0.90869141
 H   0.44270325 0.82444000 0.89073944
 C   0.45691681 0.71114349 0.95550537
 H   0.48319244 0.71400452 0.96530914
 H   0.45674133 0.69248962 0.93423462
 H   0.44005585 0.70193481 0.97619629
 N   0.45870972 0.76973724 0.91104126
 C   0.24989319 0.56536102 0.56391907
 C   0.30427551 0.56963348 0.59619904
 H   0.32440186 0.56504059 0.61415100
 C   0.21110535 0.55082703 0.54937744
 N   0.26969910 0.54903412 0.59384918
 C   0.06532288 0.75785065 0.94097137
 C   0.06959534 0.70346832 0.90869141
 H   0.06500244 0.68333435 0.89073944
 C   0.05078888 0.79663086 0.95550537
 N   0.04899597 0.73804474 0.91104126
 C   0.25781250 0.94241333 0.56391907
 C   0.20343018 0.93814850 0.59619904
 H   0.18330383 0.94274139 0.61415100
 C   0.29659271 0.95695496 0.54937744
 N   0.23800659 0.95874786 0.59384918
 C   0.06532288 0.94241333 0.75640106
 C   0.09761047 0.93814850 0.70201874
 H   0.11555481 0.94274139 0.68189240
 C   0.05078888 0.95695496 0.79518890
 N   0.09525299 0.95874786 0.73659515
 C   0.44237518 0.94241333 0.74848938
 C   0.43811035 0.91013336 0.80287170
 H   0.44270325 0.89218140 0.82299805
 C   0.45691681 0.95695496 0.70970154
 H   0.48319244 0.96675110 0.71255493
 H   0.45674133 0.93567657 0.69104767
 H   0.44005585 0.97763824 0.70049286
 N   0.45870972 0.91249084 0.76828766
 C   0.44237518 0.56536102 0.75640106
 C   0.41009521 0.56963348 0.70201874
 H   0.39214325 0.56504059 0.68189240
 C   0.45691681 0.55082703 0.79518890
 N   0.41245270 0.54903412 0.73659515
 C   0.06532288 0.56536102 0.74848938
 C   0.06959534 0.59764862 0.80287170
 H   0.06500244 0.61559296 0.82299805
 C   0.05078888 0.55082703 0.70970154
 H   0.02451324 0.54103088 0.71255493
 H   0.05096436 0.57210541 0.69104767
 H   0.06764984 0.53013611 0.70049286
 N   0.04899597 0.59529114 0.76828766
 C   0.09761047 0.56963348 0.80287170
 H   0.11555481 0.56504059 0.82299805
 N   0.09525299 0.54903412 0.76828766
 C   0.06959534 0.91013336 0.70201874
 H   0.06500244 0.89218140 0.68189240
 H   0.02451324 0.96675110 0.79233551
 H   0.05096436 0.93567657 0.81384277
 H   0.06764984 0.97763824 0.80439758
 N   0.04899597 0.91249084 0.73659515
 C   0.41009521 0.93814850 0.80287170
 H   0.39214325 0.94274139 0.82299805
 N   0.41245270 0.95874786 0.76828766
 C   0.43811035 0.59764862 0.70201874
 H   0.44270325 0.61559296 0.68189240
 H   0.48319244 0.54103088 0.79233551
 H   0.45674133 0.57210541 0.81384277
 H   0.44005585 0.53013611 0.80439758
 N   0.45870972 0.59529114 0.73659515
 C   0.20343018 0.59764862 0.93670654
 H   0.18330383 0.61559296 0.94129181
 H   0.29373932 0.54103088 0.98178864
 H   0.31525421 0.57210541 0.95532990
 H   0.30580902 0.53013611 0.93864441
 N   0.23800659 0.59529114 0.95730591
 C   0.20343018 0.91013336 0.56818390
 H   0.18330383 0.89218140 0.56359100
 H   0.29373932 0.96675110 0.52310181
 H   0.31525421 0.93567657 0.54956055
 H   0.30580902 0.97763824 0.56624603
 N   0.23800659 0.91249084 0.54758453
 C   0.41009521 0.80431366 0.93670654
 H   0.39214325 0.82444000 0.94129181
 N   0.41245270 0.76973724 0.95730591
 C   0.30427551 0.59764862 0.56818390
 H   0.32440186 0.61559296 0.56359100
 H   0.21396637 0.54103088 0.52310181
 H   0.19245148 0.57210541 0.54956055
 H   0.20189667 0.53013611 0.56624603
 N   0.26969910 0.59529114 0.54758453
 C   0.09761047 0.70346832 0.93670654
 H   0.11555481 0.68333435 0.94129181
 H   0.04099274 0.79377747 0.98178864
 H   0.07206726 0.81529236 0.95532990
 H   0.03009796 0.80584717 0.93864441
 N   0.09525299 0.73804474 0.95730591
 C   0.30427551 0.91013336 0.93670654
 H   0.32440186 0.89218140 0.94129181
 N   0.26969910 0.91249084 0.95730591
 C   0.41009521 0.70346832 0.56818390
 H   0.39214325 0.68333435 0.56359100
 N   0.41245270 0.73804474 0.54758453
 C   0.09761047 0.80431366 0.56818390
 H   0.11555481 0.82444000 0.56359100
 N   0.09525299 0.76973724 0.54758453
 C   0.19235992 0.50783539 0.31393433
 C   0.18809509 0.95345306 0.34618378
 H   0.19271851 0.93334961 0.36413574
 C   0.20690155 0.54664612 0.29939270
 N   0.20872498 0.98806000 0.34383392
Zn   0.25386810 0.50389099 0.37743378
 C   0.00779724 0.81537628 0.19095612
 C   0.45341492 0.81964874 0.15870667
 H   0.43331146 0.81502533 0.14075470
 C   0.04660797 0.80084229 0.20549011
 N   0.48802185 0.79901886 0.16105652
Zn   0.00385284 0.75390625 0.12744904
 C   0.31533813 0.99994659 0.31393433
 C   0.31961060 0.55432892 0.34618378
 H   0.31498718 0.57442474 0.36413574
 C   0.30080414 0.96113586 0.29939270
 H   0.27449799 0.96398926 0.28959656
 H   0.30094910 0.94250488 0.32064056
 H   0.31766510 0.95195007 0.27870941
 N   0.29898071 0.51972198 0.34383392
 C   0.49990845 0.69239807 0.19095612
 C   0.05429077 0.68813324 0.15870667
 H   0.07438660 0.69275665 0.14075470
 C   0.46109772 0.70693970 0.20549011
 H   0.46395111 0.73324585 0.21529388
 H   0.44246674 0.70679474 0.18424988
 H   0.45191193 0.69007874 0.22618103
 N   0.01968384 0.70876312 0.16105652
 C   0.19235992 0.99994659 0.19095612
 C   0.18809509 0.55432892 0.15870667
 H   0.19271851 0.57442474 0.14075470
 C   0.20690155 0.96113586 0.20549011
 N   0.20872498 0.51972198 0.16105652
Zn   0.25383759 0.50389099 0.12744904
 C   0.49990845 0.81537628 0.31393433
 C   0.05429077 0.81964874 0.34618378
 H   0.07438660 0.81502533 0.36413574
 C   0.46109772 0.80084229 0.29939270
 N   0.01968384 0.79901886 0.34383392
Zn   0.00385284 0.75390625 0.37743378
 C   0.31533813 0.50783539 0.19095612
 C   0.31961060 0.95345306 0.15870667
 H   0.31498718 0.93334961 0.14075470
 C   0.30080414 0.54664612 0.20549011
 H   0.27449799 0.54379272 0.21529388
 H   0.30094910 0.56527710 0.18424988
 H   0.31766510 0.55583191 0.22618103
 N   0.29898071 0.98806000 0.16105652
 C   0.00779724 0.69239807 0.31393433
 C   0.45341492 0.68813324 0.34618378
 H   0.43331146 0.69275665 0.36413574
 C   0.04660797 0.70693970 0.29939270
 H   0.04375458 0.73324585 0.28959656
 H   0.06523895 0.70679474 0.32064056
 H   0.05579376 0.69007874 0.27870941
 N   0.48802185 0.70876312 0.34383392
 C   0.31533813 0.69239807 0.00638580
 C   0.34759521 0.68813324 0.45200348
 H   0.36554718 0.69275665 0.43190765
 C   0.30080414 0.70693970 0.04520416
 N   0.34523773 0.70876312 0.48661041
Zn   0.37884521 0.75390625 0.00244141
 C   0.19235992 0.69239807 0.49850464
 C   0.18809509 0.66014862 0.05287933
 H   0.19271851 0.64219666 0.07298279
 C   0.20690155 0.70693970 0.45968628
 H   0.23320770 0.71673584 0.46253967
 H   0.20675659 0.68569183 0.44106293
 H   0.19004059 0.72762299 0.45050812
 N   0.20872498 0.66250610 0.01828003
Zn   0.25383759 0.62889862 0.00244141
 C   0.19235992 0.81537628 0.00638580
 C   0.16011047 0.81964874 0.45200348
 H   0.14215851 0.81502533 0.43190765
 C   0.20690155 0.80084229 0.04520416
 N   0.16246796 0.79901886 0.48661041
Zn   0.12886047 0.75390625 0.00244141
 C   0.31533813 0.81537628 0.49850464
 C   0.31961060 0.84763336 0.05287933
 H   0.31498718 0.86558533 0.07298279
 C   0.30080414 0.80084229 0.45968628
 H   0.27449799 0.79103851 0.46253967
 H   0.30094910 0.82209015 0.44106293
 H   0.31766510 0.78015137 0.45050812
 N   0.29898071 0.84527588 0.01828003
Zn   0.25383759 0.87888336 0.00244141
 C   0.34759521 0.81964874 0.05287933
 H   0.36554718 0.81502533 0.07298279
 N   0.34523773 0.79901886 0.01828003
 C   0.31961060 0.66014862 0.45200348
 H   0.31498718 0.64219666 0.43190765
 H   0.27449799 0.71673584 0.04235077
 H   0.30094910 0.68569183 0.06382751
 H   0.31766510 0.72762299 0.05438232
 N   0.29898071 0.66250610 0.48661041
 C   0.16011047 0.68813324 0.05287933
 H   0.14215851 0.69275665 0.07298279
 N   0.16246796 0.70876312 0.01828003
 C   0.18809509 0.84763336 0.45200348
 H   0.19271851 0.86558533 0.43190765
 H   0.23320770 0.79103851 0.04235077
 H   0.20675659 0.82209015 0.06382751
 H   0.19004059 0.78015137 0.05438232
 N   0.20872498 0.84527588 0.48661041
 C   0.45341492 0.84763336 0.18669128
 H   0.43331146 0.86558533 0.19130707
 H   0.04375458 0.79103851 0.23180389
 H   0.06523895 0.82209015 0.20534515
 H   0.05579376 0.78015137 0.18862915
 N   0.48802185 0.84527588 0.20732117
Zn   0.00385284 0.87888336 0.25242615
 C   0.45341492 0.66014862 0.31819916
 H   0.43331146 0.64219666 0.31358337
 N   0.48802185 0.66250610 0.29756927
Zn   0.00385284 0.62889862 0.25242615
 C   0.16011047 0.55432892 0.18669128
 H   0.14215851 0.57442474 0.19130707
 H   0.21669769 0.96398926 0.23180389
 H   0.18565369 0.94250488 0.20534515
 H   0.22758484 0.95195007 0.18862915
 N   0.16246796 0.51972198 0.20732117
Zn   0.12886047 0.50389099 0.25242615
 C   0.05429077 0.84763336 0.31819916
 H   0.07438660 0.86558533 0.31358337
 H   0.46395111 0.79103851 0.27308655
 H   0.44246674 0.82209015 0.29954529
 H   0.45191193 0.78015137 0.31626129
 N   0.01968384 0.84527588 0.29756927
 C   0.34759521 0.95345306 0.18669128
 H   0.36554718 0.93334961 0.19130707
 N   0.34523773 0.98806000 0.20732117
Zn   0.37884521 0.50389099 0.25242615
 C   0.05429077 0.66014862 0.18669128
 H   0.07438660 0.64219666 0.19130707
 N   0.01968384 0.66250610 0.20732117
 C   0.16011047 0.95345306 0.31819916
 H   0.14215851 0.93334961 0.31358337
 H   0.21669769 0.54379272 0.27308655
 H   0.18565369 0.56527710 0.29954529
 H   0.22758484 0.55583191 0.31626129
 N   0.16246796 0.98806000 0.29756927
 C   0.34759521 0.55432892 0.31819916
 H   0.36554718 0.57442474 0.31358337
 N   0.34523773 0.51972198 0.29756927
 C   0.44237518 0.75785065 0.06391907
 C   0.43811035 0.70346832 0.09619904
 H   0.44270325 0.68333435 0.11415100
 C   0.45691681 0.79663086 0.04937744
 H   0.48319244 0.79377747 0.03958130
 H   0.45674133 0.81529236 0.07065582
 H   0.44005585 0.80584717 0.02869415
 N   0.45870972 0.73804474 0.09384918
 C   0.25781250 0.56536102 0.44097137
 C   0.20343018 0.56963348 0.40869141
 H   0.18330383 0.56504059 0.39073944
 C   0.29659271 0.55082703 0.45550537
 N   0.23800659 0.54903412 0.41104126
 C   0.06532288 0.74993134 0.06391907
 C   0.06959534 0.80431366 0.09619904
 H   0.06500244 0.82444000 0.11415100
 C   0.05078888 0.71114349 0.04937744
 H   0.02451324 0.71400452 0.03958130
 H   0.05096436 0.69248962 0.07065582
 H   0.06764984 0.70193481 0.02869415
 N   0.04899597 0.76973724 0.09384918
 C   0.24989319 0.94241333 0.44097137
 C   0.30427551 0.93814850 0.40869141
 H   0.32440186 0.94274139 0.39073944
 C   0.21110535 0.95695496 0.45550537
 H   0.21396637 0.98323059 0.46530914
 H   0.19245148 0.95677948 0.43423462
 H   0.20189667 0.94009399 0.47619629
 N   0.26969910 0.95874786 0.41104126
 C   0.44237518 0.74993134 0.44097137
 C   0.43811035 0.80431366 0.40869141
 H   0.44270325 0.82444000 0.39073944
 C   0.45691681 0.71114349 0.45550537
 H   0.48319244 0.71400452 0.46530914
 H   0.45674133 0.69248962 0.43423462
 H   0.44005585 0.70193481 0.47619629
 N   0.45870972 0.76973724 0.41104126
 C   0.24989319 0.56536102 0.06391907
 C   0.30427551 0.56963348 0.09619904
 H   0.32440186 0.56504059 0.11415100
 C   0.21110535 0.55082703 0.04937744
 N   0.26969910 0.54903412 0.09384918
 C   0.06532288 0.75785065 0.44097137
 C   0.06959534 0.70346832 0.40869141
 H   0.06500244 0.68333435 0.39073944
 C   0.05078888 0.79663086 0.45550537
 N   0.04899597 0.73804474 0.41104126
 C   0.25781250 0.94241333 0.06391907
 C   0.20343018 0.93814850 0.09619904
 H   0.18330383 0.94274139 0.11415100
 C   0.29659271 0.95695496 0.04937744
 N   0.23800659 0.95874786 0.09384918
 C   0.06532288 0.94241333 0.25640106
 C   0.09761047 0.93814850 0.20201874
 H   0.11555481 0.94274139 0.18189240
 C   0.05078888 0.95695496 0.29518890
 N   0.09525299 0.95874786 0.23659515
 C   0.44237518 0.94241333 0.24848938
 C   0.43811035 0.91013336 0.30287170
 H   0.44270325 0.89218140 0.32299805
 C   0.45691681 0.95695496 0.20970154
 H   0.48319244 0.96675110 0.21255493
 H   0.45674133 0.93567657 0.19104767
 H   0.44005585 0.97763824 0.20049286
 N   0.45870972 0.91249084 0.26828766
 C   0.44237518 0.56536102 0.25640106
 C   0.41009521 0.56963348 0.20201874
 H   0.39214325 0.56504059 0.18189240
 C   0.45691681 0.55082703 0.29518890
 N   0.41245270 0.54903412 0.23659515
 C   0.06532288 0.56536102 0.24848938
 C   0.06959534 0.59764862 0.30287170
 H   0.06500244 0.61559296 0.32299805
 C   0.05078888 0.55082703 0.20970154
 H   0.02451324 0.54103088 0.21255493
 H   0.05096436 0.57210541 0.19104767
 H   0.06764984 0.53013611 0.20049286
 N   0.04899597 0.59529114 0.26828766
 C   0.09761047 0.56963348 0.30287170
 H   0.11555481 0.56504059 0.32299805
 N   0.09525299 0.54903412 0.26828766
 C   0.06959534 0.91013336 0.20201874
 H   0.06500244 0.89218140 0.18189240
 H   0.02451324 0.96675110 0.29233551
 H   0.05096436 0.93567657 0.31384277
 H   0.06764984 0.97763824 0.30439758
 N   0.04899597 0.91249084 0.23659515
 C   0.41009521 0.93814850 0.30287170
 H   0.39214325 0.94274139 0.32299805
 N   0.41245270 0.95874786 0.26828766
 C   0.43811035 0.59764862 0.20201874
 H   0.44270325 0.61559296 0.18189240
 H   0.48319244 0.54103088 0.29233551
 H   0.45674133 0.57210541 0.31384277
 H   0.44005585 0.53013611 0.30439758
 N   0.45870972 0.59529114 0.23659515
 C   0.20343018 0.59764862 0.43670654
 H   0.18330383 0.61559296 0.44129181
 H   0.29373932 0.54103088 0.48178864
 H   0.31525421 0.57210541 0.45532990
 H   0.30580902 0.53013611 0.43864441
 N   0.23800659 0.59529114 0.45730591
 C   0.20343018 0.91013336 0.06818390
 H   0.18330383 0.89218140 0.06359100
 H   0.29373932 0.96675110 0.02310181
 H   0.31525421 0.93567657 0.04956055
 H   0.30580902 0.97763824 0.06624603
 N   0.23800659 0.91249084 0.04758453
 C   0.41009521 0.80431366 0.43670654
 H   0.39214325 0.82444000 0.44129181
 N   0.41245270 0.76973724 0.45730591
 C   0.30427551 0.59764862 0.06818390
 H   0.32440186 0.61559296 0.06359100
 H   0.21396637 0.54103088 0.02310181
 H   0.19245148 0.57210541 0.04956055
 H   0.20189667 0.53013611 0.06624603
 N   0.26969910 0.59529114 0.04758453
 C   0.09761047 0.70346832 0.43670654
 H   0.11555481 0.68333435 0.44129181
 H   0.04099274 0.79377747 0.48178864
 H   0.07206726 0.81529236 0.45532990
 H   0.03009796 0.80584717 0.43864441
 N   0.09525299 0.73804474 0.45730591
 C   0.30427551 0.91013336 0.43670654
 H   0.32440186 0.89218140 0.44129181
 N   0.26969910 0.91249084 0.45730591
 C   0.41009521 0.70346832 0.06818390
 H   0.39214325 0.68333435 0.06359100
 N   0.41245270 0.73804474 0.04758453
 C   0.09761047 0.80431366 0.06818390
 H   0.11555481 0.82444000 0.06359100
 N   0.09525299 0.76973724 0.04758453
 C   0.19235992 0.00783539 0.81393433
 C   0.18809509 0.45345306 0.84618378
 H   0.19271851 0.43334961 0.86413574
 C   0.20690155 0.04664612 0.79939270
 N   0.20872498 0.48806000 0.84383392
Zn   0.25383759 0.00389099 0.87743378
 C   0.00779724 0.31537628 0.69095612
 C   0.45341492 0.31964874 0.65870667
 H   0.43331146 0.31502533 0.64075470
 C   0.04660797 0.30084229 0.70549011
 N   0.48802185 0.29901886 0.66105652
Zn   0.00385284 0.25387573 0.62744904
 C   0.31533813 0.49994659 0.81393433
 C   0.31961060 0.05432892 0.84618378
 H   0.31498718 0.07442474 0.86413574
 C   0.30080414 0.46113586 0.79939270
 H   0.27449799 0.46398926 0.78959656
 H   0.30094910 0.44250488 0.82064056
 H   0.31766510 0.45195007 0.77870941
 N   0.29898071 0.01972198 0.84383392
 C   0.49990845 0.19239807 0.69095612
 C   0.05429077 0.18813324 0.65870667
 H   0.07438660 0.19275665 0.64075470
 C   0.46109772 0.20693970 0.70549011
 H   0.46395111 0.23324585 0.71529388
 H   0.44246674 0.20679474 0.68424988
 H   0.45191193 0.19007874 0.72618103
 N   0.01968384 0.20876312 0.66105652
 C   0.19235992 0.49994659 0.69095612
 C   0.18809509 0.05432892 0.65870667
 H   0.19271851 0.07442474 0.64075470
 C   0.20690155 0.46113586 0.70549011
 N   0.20872498 0.01972198 0.66105652
Zn   0.25383759 0.00389099 0.62744904
 C   0.49990845 0.31537628 0.81393433
 C   0.05429077 0.31964874 0.84618378
 H   0.07438660 0.31502533 0.86413574
 C   0.46109772 0.30084229 0.79939270
 N   0.01968384 0.29901886 0.84383392
Zn   0.00385284 0.25387573 0.87743378
 C   0.31533813 0.00783539 0.69095612
 C   0.31961060 0.45345306 0.65870667
 H   0.31498718 0.43334961 0.64075470
 C   0.30080414 0.04664612 0.70549011
 H   0.27449799 0.04379272 0.71529388
 H   0.30094910 0.06527710 0.68424988
 H   0.31766510 0.05583191 0.72618103
 N   0.29898071 0.48806000 0.66105652
 C   0.00779724 0.19239807 0.81393433
 C   0.45341492 0.18813324 0.84618378
 H   0.43331146 0.19275665 0.86413574
 C   0.04660797 0.20693970 0.79939270
 H   0.04375458 0.23324585 0.78959656
 H   0.06523895 0.20679474 0.82064056
 H   0.05579376 0.19007874 0.77870941
 N   0.48802185 0.20876312 0.84383392
 C   0.31533813 0.19239807 0.50638580
 C   0.34759521 0.18813324 0.95200348
 H   0.36554718 0.19275665 0.93190765
 C   0.30080414 0.20693970 0.54520416
 N   0.34523773 0.20876312 0.98661041
Zn   0.37884521 0.25387573 0.50244141
 C   0.19235992 0.19239807 0.99850464
 C   0.18809509 0.16014862 0.55287933
 H   0.19271851 0.14219666 0.57298279
 C   0.20690155 0.20693970 0.95968628
 H   0.23320770 0.21673584 0.96253967
 H   0.20675659 0.18569183 0.94106293
 H   0.19004059 0.22762299 0.95050812
 N   0.20872498 0.16250610 0.51828003
Zn   0.25383759 0.12889862 0.50244141
 C   0.19235992 0.31537628 0.50638580
 C   0.16011047 0.31964874 0.95200348
 H   0.14215851 0.31502533 0.93190765
 C   0.20690155 0.30084229 0.54520416
 N   0.16246796 0.29901886 0.98661041
Zn   0.12886047 0.25387573 0.50244141
 C   0.31533813 0.31537628 0.99850464
 C   0.31961060 0.34763336 0.55287933
 H   0.31498718 0.36558533 0.57298279
 C   0.30080414 0.30084229 0.95968628
 H   0.27449799 0.29103851 0.96253967
 H   0.30094910 0.32209015 0.94106293
 H   0.31766510 0.28015137 0.95050812
 N   0.29898071 0.34527588 0.51828003
Zn   0.25386810 0.37888336 0.50244141
 C   0.34759521 0.31964874 0.55287933
 H   0.36554718 0.31502533 0.57298279
 N   0.34523773 0.29901886 0.51828003
 C   0.31961060 0.16014862 0.95200348
 H   0.31498718 0.14219666 0.93190765
 H   0.27449799 0.21673584 0.54235077
 H   0.30094910 0.18569183 0.56382751
 H   0.31766510 0.22762299 0.55438232
 N   0.29898071 0.16250610 0.98661041
 C   0.16011047 0.18813324 0.55287933
 H   0.14215851 0.19275665 0.57298279
 N   0.16246796 0.20876312 0.51828003
 C   0.18809509 0.34763336 0.95200348
 H   0.19271851 0.36558533 0.93190765
 H   0.23320770 0.29103851 0.54235077
 H   0.20675659 0.32209015 0.56382751
 H   0.19004059 0.28015137 0.55438232
 N   0.20872498 0.34527588 0.98661041
 C   0.45341492 0.34763336 0.68669128
 H   0.43331146 0.36558533 0.69130707
 H   0.04375458 0.29103851 0.73180389
 H   0.06523895 0.32209015 0.70534515
 H   0.05579376 0.28015137 0.68862915
 N   0.48802185 0.34527588 0.70732117
Zn   0.00385284 0.37888336 0.75242615
 C   0.45341492 0.16014862 0.81819916
 H   0.43331146 0.14219666 0.81358337
 N   0.48802185 0.16250610 0.79756927
Zn   0.00385284 0.12889862 0.75242615
 C   0.16011047 0.05432892 0.68669128
 H   0.14215851 0.07442474 0.69130707
 H   0.21669769 0.46398926 0.73180389
 H   0.18565369 0.44250488 0.70534515
 H   0.22758484 0.45195007 0.68862915
 N   0.16246796 0.01972198 0.70732117
Zn   0.12886047 0.00389099 0.75242615
 C   0.05429077 0.34763336 0.81819916
 H   0.07438660 0.36558533 0.81358337
 H   0.46395111 0.29103851 0.77308655
 H   0.44246674 0.32209015 0.79954529
 H   0.45191193 0.28015137 0.81626129
 N   0.01968384 0.34527588 0.79756927
 C   0.34759521 0.45345306 0.68669128
 H   0.36554718 0.43334961 0.69130707
 N   0.34523773 0.48806000 0.70732117
Zn   0.37884521 0.00389099 0.75242615
 C   0.05429077 0.16014862 0.68669128
 H   0.07438660 0.14219666 0.69130707
 N   0.01968384 0.16250610 0.70732117
 C   0.16011047 0.45345306 0.81819916
 H   0.14215851 0.43334961 0.81358337
 H   0.21669769 0.04379272 0.77308655
 H   0.18565369 0.06527710 0.79954529
 H   0.22758484 0.05583191 0.81626129
 N   0.16246796 0.48806000 0.79756927
 C   0.34759521 0.05432892 0.81819916
 H   0.36554718 0.07442474 0.81358337
 N   0.34523773 0.01972198 0.79756927
 C   0.44237518 0.25785065 0.56391907
 C   0.43811035 0.20346832 0.59619904
 H   0.44270325 0.18333435 0.61415100
 C   0.45691681 0.29663086 0.54937744
 H   0.48319244 0.29377747 0.53958130
 H   0.45674133 0.31529236 0.57065582
 H   0.44005585 0.30584717 0.52869415
 N   0.45870972 0.23804474 0.59384918
 C   0.25781250 0.06536102 0.94097137
 C   0.20343018 0.06963348 0.90869141
 H   0.18330383 0.06504059 0.89073944
 C   0.29659271 0.05082703 0.95550537
 N   0.23800659 0.04903412 0.91104126
 C   0.06532288 0.24993134 0.56391907
 C   0.06959534 0.30431366 0.59619904
 H   0.06500244 0.32444000 0.61415100
 C   0.05078888 0.21114349 0.54937744
 H   0.02451324 0.21400452 0.53958130
 H   0.05096436 0.19248962 0.57065582
 H   0.06764984 0.20193481 0.52869415
 N   0.04899597 0.26973724 0.59384918
 C   0.24989319 0.44241333 0.94097137
 C   0.30427551 0.43814850 0.90869141
 H   0.32440186 0.44274139 0.89073944
 C   0.21110535 0.45695496 0.95550537
 H   0.21396637 0.48323059 0.96530914
 H   0.19245148 0.45677948 0.93423462
 H   0.20189667 0.44009399 0.97619629
 N   0.26969910 0.45874786 0.91104126
 C   0.44237518 0.24993134 0.94097137
 C   0.43811035 0.30431366 0.90869141
 H   0.44270325 0.32444000 0.89073944
 C   0.45691681 0.21114349 0.95550537
 H   0.48319244 0.21400452 0.96530914
 H   0.45674133 0.19248962 0.93423462
 H   0.44005585 0.20193481 0.97619629
 N   0.45870972 0.26973724 0.91104126
 C   0.24989319 0.06536102 0.56391907
 C   0.30427551 0.06963348 0.59619904
 H   0.32440186 0.06504059 0.61415100
 C   0.21110535 0.05082703 0.54937744
 N   0.26969910 0.04903412 0.59384918
 C   0.06532288 0.25785065 0.94097137
 C   0.06959534 0.20346832 0.90869141
 H   0.06500244 0.18333435 0.89073944
 C   0.05078888 0.29663086 0.95550537
 N   0.04899597 0.23804474 0.91104126
 C   0.25781250 0.44241333 0.56391907
 C   0.20343018 0.43814850 0.59619904
 H   0.18330383 0.44274139 0.61415100
 C   0.29659271 0.45695496 0.54937744
 N   0.23800659 0.45874786 0.59384918
 C   0.06532288 0.44241333 0.75640106
 C   0.09761047 0.43814850 0.70201874
 H   0.11555481 0.44274139 0.68189240
 C   0.05078888 0.45695496 0.79518890
 N   0.09525299 0.45874786 0.73659515
 C   0.44237518 0.44241333 0.74848938
 C   0.43811035 0.41013336 0.80287170
 H   0.44270325 0.39218140 0.82299805
 C   0.45691681 0.45695496 0.70970154
 H   0.48319244 0.46675110 0.71255493
 H   0.45674133 0.43567657 0.69104767
 H   0.44005585 0.47763824 0.70049286
 N   0.45870972 0.41249084 0.76828766
 C   0.44237518 0.06536102 0.75640106
 C   0.41009521 0.06963348 0.70201874
 H   0.39214325 0.06504059 0.68189240
 C   0.45691681 0.05082703 0.79518890
 N   0.41245270 0.04903412 0.73659515
 C   0.06532288 0.06536102 0.74848938
 C   0.06959534 0.09764862 0.80287170
 H   0.06500244 0.11559296 0.82299805
 C   0.05078888 0.05082703 0.70970154
 H   0.02451324 0.04103088 0.71255493
 H   0.05096436 0.07210541 0.69104767
 H   0.06764984 0.03013611 0.70049286
 N   0.04899597 0.09529114 0.76828766
 C   0.09761047 0.06963348 0.80287170
 H   0.11555481 0.06504059 0.82299805
 N   0.09525299 0.04903412 0.76828766
 C   0.06959534 0.41013336 0.70201874
 H   0.06500244 0.39218140 0.68189240
 H   0.02451324 0.46675110 0.79233551
 H   0.05096436 0.43567657 0.81384277
 H   0.06764984 0.47763824 0.80439758
 N   0.04899597 0.41249084 0.73659515
 C   0.41009521 0.43814850 0.80287170
 H   0.39214325 0.44274139 0.82299805
 N   0.41245270 0.45874786 0.76828766
 C   0.43811035 0.09764862 0.70201874
 H   0.44270325 0.11559296 0.68189240
 H   0.48319244 0.04103088 0.79233551
 H   0.45674133 0.07210541 0.81384277
 H   0.44005585 0.03013611 0.80439758
 N   0.45870972 0.09529114 0.73659515
 C   0.20343018 0.09764862 0.93670654
 H   0.18330383 0.11559296 0.94129181
 H   0.29373932 0.04103088 0.98178864
 H   0.31525421 0.07210541 0.95532990
 H   0.30580902 0.03013611 0.93864441
 N   0.23800659 0.09529114 0.95730591
 C   0.20343018 0.41013336 0.56818390
 H   0.18330383 0.39218140 0.56359100
 H   0.29373932 0.46675110 0.52310181
 H   0.31525421 0.43567657 0.54956055
 H   0.30580902 0.47763824 0.56624603
 N   0.23800659 0.41249084 0.54758453
 C   0.41009521 0.30431366 0.93670654
 H   0.39214325 0.32444000 0.94129181
 N   0.41245270 0.26973724 0.95730591
 C   0.30427551 0.09764862 0.56818390
 H   0.32440186 0.11559296 0.56359100
 H   0.21396637 0.04103088 0.52310181
 H   0.19245148 0.07210541 0.54956055
 H   0.20189667 0.03013611 0.56624603
 N   0.26969910 0.09529114 0.54758453
 C   0.09761047 0.20346832 0.93670654
 H   0.11555481 0.18333435 0.94129181
 H   0.04099274 0.29377747 0.98178864
 H   0.07206726 0.31529236 0.95532990
 H   0.03009796 0.30584717 0.93864441
 N   0.09525299 0.23804474 0.95730591
 C   0.30427551 0.41013336 0.93670654
 H   0.32440186 0.39218140 0.94129181
 N   0.26969910 0.41249084 0.95730591
 C   0.41009521 0.20346832 0.56818390
 H   0.39214325 0.18333435 0.56359100
 N   0.41245270 0.23804474 0.54758453
 C   0.09761047 0.30431366 0.56818390
 H   0.11555481 0.32444000 0.56359100
 N   0.09525299 0.26973724 0.54758453
 C   0.19235992 0.00783539 0.31393433
 C   0.18809509 0.45345306 0.34618378
 H   0.19271851 0.43334961 0.36413574
 C   0.20690155 0.04664612 0.29939270
 N   0.20872498 0.48806000 0.34383392
Zn   0.25386810 0.00389099 0.37743378
 C   0.00779724 0.31537628 0.19095612
 C   0.45341492 0.31964874 0.15870667
 H   0.43331146 0.31502533 0.14075470
 C   0.04660797 0.30084229 0.20549011
 N   0.48802185 0.29901886 0.16105652
Zn   0.00385284 0.25387573 0.12744904
 C   0.31533813 0.49994659 0.31393433
 C   0.31961060 0.05432892 0.34618378
 H   0.31498718 0.07442474 0.36413574
 C   0.30080414 0.46113586 0.29939270
 H   0.27449799 0.46398926 0.28959656
 H   0.30094910 0.44250488 0.32064056
 H   0.31766510 0.45195007 0.27870941
 N   0.29898071 0.01972198 0.34383392
 C   0.49990845 0.19239807 0.19095612
 C   0.05429077 0.18813324 0.15870667
 H   0.07438660 0.19275665 0.14075470
 C   0.46109772 0.20693970 0.20549011
 H   0.46395111 0.23324585 0.21529388
 H   0.44246674 0.20679474 0.18424988
 H   0.45191193 0.19007874 0.22618103
 N   0.01968384 0.20876312 0.16105652
 C   0.19235992 0.49994659 0.19095612
 C   0.18809509 0.05432892 0.15870667
 H   0.19271851 0.07442474 0.14075470
 C   0.20690155 0.46113586 0.20549011
 N   0.20872498 0.01972198 0.16105652
Zn   0.25383759 0.00389099 0.12744904
 C   0.49990845 0.31537628 0.31393433
 C   0.05429077 0.31964874 0.34618378
 H   0.07438660 0.31502533 0.36413574
 C   0.46109772 0.30084229 0.29939270
 N   0.01968384 0.29901886 0.34383392
Zn   0.00385284 0.25390625 0.37743378
 C   0.31533813 0.00783539 0.19095612
 C   0.31961060 0.45345306 0.15870667
 H   0.31498718 0.43334961 0.14075470
 C   0.30080414 0.04664612 0.20549011
 H   0.27449799 0.04379272 0.21529388
 H   0.30094910 0.06527710 0.18424988
 H   0.31766510 0.05583191 0.22618103
 N   0.29898071 0.48806000 0.16105652
 C   0.00779724 0.19239807 0.31393433
 C   0.45341492 0.18813324 0.34618378
 H   0.43331146 0.19275665 0.36413574
 C   0.04660797 0.20693970 0.29939270
 H   0.04375458 0.23324585 0.28959656
 H   0.06523895 0.20679474 0.32064056
 H   0.05579376 0.19007874 0.27870941
 N   0.48802185 0.20876312 0.34383392
 C   0.31533813 0.19239807 0.00638580
 C   0.34759521 0.18813324 0.45200348
 H   0.36554718 0.19275665 0.43190765
 C   0.30080414 0.20693970 0.04520416
 N   0.34523773 0.20876312 0.48661041
Zn   0.37884521 0.25387573 0.00244141
 C   0.19235992 0.19239807 0.49850464
 C   0.18809509 0.16014862 0.05287933
 H   0.19271851 0.14219666 0.07298279
 C   0.20690155 0.20693970 0.45968628
 H   0.23320770 0.21673584 0.46253967
 H   0.20675659 0.18569183 0.44106293
 H   0.19004059 0.22762299 0.45050812
 N   0.20872498 0.16250610 0.01828003
Zn   0.25383759 0.12889862 0.00244141
 C   0.19235992 0.31537628 0.00638580
 C   0.16011047 0.31964874 0.45200348
 H   0.14215851 0.31502533 0.43190765
 C   0.20690155 0.30084229 0.04520416
 N   0.16246796 0.29901886 0.48661041
Zn   0.12886047 0.25387573 0.00244141
 C   0.31533813 0.31537628 0.49850464
 C   0.31961060 0.34763336 0.05287933
 H   0.31498718 0.36558533 0.07298279
 C   0.30080414 0.30084229 0.45968628
 H   0.27449799 0.29103851 0.46253967
 H   0.30094910 0.32209015 0.44106293
 H   0.31766510 0.28015137 0.45050812
 N   0.29898071 0.34527588 0.01828003
Zn   0.25386810 0.37888336 0.00244141
 C   0.34759521 0.31964874 0.05287933
 H   0.36554718 0.31502533 0.07298279
 N   0.34523773 0.29901886 0.01828003
 C   0.31961060 0.16014862 0.45200348
 H   0.31498718 0.14219666 0.43190765
 H   0.27449799 0.21673584 0.04235077
 H   0.30094910 0.18569183 0.06382751
 H   0.31766510 0.22762299 0.05438232
 N   0.29898071 0.16250610 0.48661041
 C   0.16011047 0.18813324 0.05287933
 H   0.14215851 0.19275665 0.07298279
 N   0.16246796 0.20876312 0.01828003
 C   0.18809509 0.34763336 0.45200348
 H   0.19271851 0.36558533 0.43190765
 H   0.23320770 0.29103851 0.04235077
 H   0.20675659 0.32209015 0.06382751
 H   0.19004059 0.28015137 0.05438232
 N   0.20872498 0.34527588 0.48661041
 C   0.45341492 0.34763336 0.18669128
 H   0.43331146 0.36558533 0.19130707
 H   0.04375458 0.29103851 0.23180389
 H   0.06523895 0.32209015 0.20534515
 H   0.05579376 0.28015137 0.18862915
 N   0.48802185 0.34527588 0.20732117
Zn   0.00385284 0.37888336 0.25242615
 C   0.45341492 0.16014862 0.31819916
 H   0.43331146 0.14219666 0.31358337
 N   0.48802185 0.16250610 0.29756927
Zn   0.00385284 0.12889862 0.25242615
 C   0.16011047 0.05432892 0.18669128
 H   0.14215851 0.07442474 0.19130707
 H   0.21669769 0.46398926 0.23180389
 H   0.18565369 0.44250488 0.20534515
 H   0.22758484 0.45195007 0.18862915
 N   0.16246796 0.01972198 0.20732117
Zn   0.12886047 0.00389099 0.25242615
 C   0.05429077 0.34763336 0.31819916
 H   0.07438660 0.36558533 0.31358337
 H   0.46395111 0.29103851 0.27308655
 H   0.44246674 0.32209015 0.29954529
 H   0.45191193 0.28015137 0.31626129
 N   0.01968384 0.34527588 0.29756927
 C   0.34759521 0.45345306 0.18669128
 H   0.36554718 0.43334961 0.19130707
 N   0.34523773 0.48806000 0.20732117
Zn   0.37884521 0.00389099 0.25242615
 C   0.05429077 0.16014862 0.18669128
 H   0.07438660 0.14219666 0.19130707
 N   0.01968384 0.16250610 0.20732117
 C   0.16011047 0.45345306 0.31819916
 H   0.14215851 0.43334961 0.31358337
 H   0.21669769 0.04379272 0.27308655
 H   0.18565369 0.06527710 0.29954529
 H   0.22758484 0.05583191 0.31626129
 N   0.16246796 0.48806000 0.29756927
 C   0.34759521 0.05432892 0.31819916
 H   0.36554718 0.07442474 0.31358337
 N   0.34523773 0.01972198 0.29756927
 C   0.44237518 0.25785065 0.06391907
 C   0.43811035 0.20346832 0.09619904
 H   0.44270325 0.18333435 0.11415100
 C   0.45691681 0.29663086 0.04937744
 H   0.48319244 0.29377747 0.03958130
 H   0.45674133 0.31529236 0.07065582
 H   0.44005585 0.30584717 0.02869415
 N   0.45870972 0.23804474 0.09384918
 C   0.25781250 0.06536102 0.44097137
 C   0.20343018 0.06963348 0.40869141
 H   0.18330383 0.06504059 0.39073944
 C   0.29659271 0.05082703 0.45550537
 N   0.23800659 0.04903412 0.41104126
 C   0.06532288 0.24993134 0.06391907
 C   0.06959534 0.30431366 0.09619904
 H   0.06500244 0.32444000 0.11415100
 C   0.05078888 0.21114349 0.04937744
 H   0.02451324 0.21400452 0.03958130
 H   0.05096436 0.19248962 0.07065582
 H   0.06764984 0.20193481 0.02869415
 N   0.04899597 0.26973724 0.09384918
 C   0.24989319 0.44241333 0.44097137
 C   0.30427551 0.43814850 0.40869141
 H   0.32440186 0.44274139 0.39073944
 C   0.21110535 0.45695496 0.45550537
 H   0.21396637 0.48323059 0.46530914
 H   0.19245148 0.45677948 0.43423462
 H   0.20189667 0.44009399 0.47619629
 N   0.26969910 0.45874786 0.41104126
 C   0.44237518 0.24993134 0.44097137
 C   0.43811035 0.30431366 0.40869141
 H   0.44270325 0.32444000 0.39073944
 C   0.45691681 0.21114349 0.45550537
 H   0.48319244 0.21400452 0.46530914
 H   0.45674133 0.19248962 0.43423462
 H   0.44005585 0.20193481 0.47619629
 N   0.45870972 0.26973724 0.41104126
 C   0.24989319 0.06536102 0.06391907
 C   0.30427551 0.06963348 0.09619904
 H   0.32440186 0.06504059 0.11415100
 C   0.21110535 0.05082703 0.04937744
 N   0.26969910 0.04903412 0.09384918
 C   0.06532288 0.25785065 0.44097137
 C   0.06959534 0.20346832 0.40869141
 H   0.06500244 0.18333435 0.39073944
 C   0.05078888 0.29663086 0.45550537
 N   0.04899597 0.23804474 0.41104126
 C   0.25781250 0.44241333 0.06391907
 C   0.20343018 0.43814850 0.09619904
 H   0.18330383 0.44274139 0.11415100
 C   0.29659271 0.45695496 0.04937744
 N   0.23800659 0.45874786 0.09384918
 C   0.06532288 0.44241333 0.25640106
 C   0.09761047 0.43814850 0.20201874
 H   0.11555481 0.44274139 0.18189240
 C   0.05078888 0.45695496 0.29518890
 N   0.09525299 0.45874786 0.23659515
 C   0.44237518 0.44241333 0.24848938
 C   0.43811035 0.41013336 0.30287170
 H   0.44270325 0.39218140 0.32299805
 C   0.45691681 0.45695496 0.20970154
 H   0.48319244 0.46675110 0.21255493
 H   0.45674133 0.43567657 0.19104767
 H   0.44005585 0.47763824 0.20049286
 N   0.45870972 0.41249084 0.26828766
 C   0.44237518 0.06536102 0.25640106
 C   0.41009521 0.06963348 0.20201874
 H   0.39214325 0.06504059 0.18189240
 C   0.45691681 0.05082703 0.29518890
 N   0.41245270 0.04903412 0.23659515
 C   0.06532288 0.06536102 0.24848938
 C   0.06959534 0.09764862 0.30287170
 H   0.06500244 0.11559296 0.32299805
 C   0.05078888 0.05082703 0.20970154
 H   0.02451324 0.04103088 0.21255493
 H   0.05096436 0.07210541 0.19104767
 H   0.06764984 0.03013611 0.20049286
 N   0.04899597 0.09529114 0.26828766
 C   0.09761047 0.06963348 0.30287170
 H   0.11555481 0.06504059 0.32299805
 N   0.09525299 0.04903412 0.26828766
 C   0.06959534 0.41013336 0.20201874
 H   0.06500244 0.39218140 0.18189240
 H   0.02451324 0.46675110 0.29233551
 H   0.05096436 0.43567657 0.31384277
 H   0.06764984 0.47763824 0.30439758
 N   0.04899597 0.41249084 0.23659515
 C   0.41009521 0.43814850 0.30287170
 H   0.39214325 0.44274139 0.32299805
 N   0.41245270 0.45874786 0.26828766
 C   0.43811035 0.09764862 0.20201874
 H   0.44270325 0.11559296 0.18189240
 H   0.48319244 0.04103088 0.29233551
 H   0.45674133 0.07210541 0.31384277
 H   0.44005585 0.03013611 0.30439758
 N   0.45870972 0.09529114 0.23659515
 C   0.20343018 0.09764862 0.43670654
 H   0.18330383 0.11559296 0.44129181
 H   0.29373932 0.04103088 0.48178864
 H   0.31525421 0.07210541 0.45532990
 H   0.30580902 0.03013611 0.43864441
 N   0.23800659 0.09529114 0.45730591
 C   0.20343018 0.41013336 0.06818390
 H   0.18330383 0.39218140 0.06359100
 H   0.29373932 0.46675110 0.02310181
 H   0.31525421 0.43567657 0.04956055
 H   0.30580902 0.47763824 0.06624603
 N   0.23800659 0.41249084 0.04758453
 C   0.41009521 0.30431366 0.43670654
 H   0.39214325 0.32444000 0.44129181
 N   0.41245270 0.26973724 0.45730591
 C   0.30427551 0.09764862 0.06818390
 H   0.32440186 0.11559296 0.06359100
 H   0.21396637 0.04103088 0.02310181
 H   0.19245148 0.07210541 0.04956055
 H   0.20189667 0.03013611 0.06624603
 N   0.26969910 0.09529114 0.04758453
 C   0.09761047 0.20346832 0.43670654
 H   0.11555481 0.18333435 0.44129181
 H   0.04099274 0.29377747 0.48178864
 H   0.07206726 0.31529236 0.45532990
 H   0.03009796 0.30584717 0.43864441
 N   0.09525299 0.23804474 0.45730591
 C   0.30427551 0.41013336 0.43670654
 H   0.32440186 0.39218140 0.44129181
 N   0.26969910 0.41249084 0.45730591
 C   0.41009521 0.20346832 0.06818390
 H   0.39214325 0.18333435 0.06359100
 N   0.41245270 0.23804474 0.04758453
 C   0.09761047 0.30431366 0.06818390
 H   0.11555481 0.32444000 0.06359100
 N   0.09525299 0.26973724 0.04758453
Xe   0.61582184 0.00568390 0.11312103
Xe   0.89779663 0.11515808 0.01380157
Xe   0.10504913 0.61062622 0.11450195
Xe   0.67070770 0.78262329 0.35372162
Xe   0.40297699 0.39032745 0.49838257
Xe   0.10173035 0.89233398 0.00830078
Xe   0.64581299 0.35330963 0.14308167
Xe   0.14210510 0.74322510 0.14145660
Xe   0.60308075 0.89365387 0.41086578
Xe   0.91053772 0.40901947 0.48825836
Xe   0.86030579 0.86440277 0.86510468
Xe   0.86410522 0.76184845 0.36031342
Xe   0.64492798 0.14405060 0.36548615
Xe   0.89735413 0.09820557 0.40889740
Xe   0.50329590 0.91246033 0.38235474
Xe   0.36315918 0.14205170 0.64717102
Xe   0.61161804 0.08817291 0.59858704
Xe   0.65113831 0.74943542 0.86757660
Xe   0.16361237 0.84410095 0.84844971
Xe   0.86595917 0.14458466 0.14040375
Xe   0.65090179 0.25649261 0.63407135
Xe   0.89532471 0.90130615 0.49088287
Xe   0.39988708 0.02552032 0.60231781
Xe   0.39305878 0.10926819 0.39368439
Xe   0.36689758 0.86434937 0.86537170
Xe   0.35942078 0.35410309 0.35825348
Xe   0.39282227 0.11389160 0.51018524
Xe   0.99705505 0.14054871 0.50800323
Xe   0.88508606 0.74446106 0.26072693
Xe   0.14660645 0.76682281 0.36225128
Xe   0.09469604 0.40371704 0.40980530
Xe   0.00426483 0.01062775 0.63448334
Xe   0.09910583 0.88500214 0.50238800
Xe   0.36127472 0.64531708 0.13990021
Xe   0.89340973 0.41422272 0.09087372
Xe   0.14315796 0.33459473 0.15108490
Xe   0.85545349 0.87217712 0.75884247
Xe   0.35247803 0.36308289 0.25348663
Xe   0.14080811 0.64708710 0.35395050
Xe   0.14283752 0.85086823 0.16550446
Xe   0.09021759 0.95092010 0.59825897
Xe   0.74342346 0.86649323 0.64528656
Xe   0.87036896 0.13864136 0.63739777
Xe   0.16587830 0.64163971 0.76007843
Xe   0.63330078 0.75690460 0.24610138
Xe   0.87413788 0.25914001 0.35153961
Xe   0.50797272 0.37758636 0.00909424
Xe   0.10537720 0.89615631 0.39156342
Xe   0.63724518 0.25888062 0.35153961
Xe   0.91327667 0.90100861 0.11150360
Xe   0.75916290 0.75690460 0.62630463
Xe   0.14562988 0.15273285 0.86148834
Xe   0.39461517 0.11577606 0.89994812
Xe   0.84859467 0.35848999 0.35719299
Xe   0.37104797 0.13940430 0.13633728
Xe   0.45635986 0.53670502 0.46312714
Xe   0.69942474 0.32871246 0.35112762
Xe   0.91098022 0.99538422 0.39438629
Xe   0.37998962 0.77420807 0.73792267
Xe   0.39888763 0.61238861 0.89279938
Xe   0.65787506 0.36051941 0.73860168
Xe   0.34097290 0.84598541 0.16064453
Xe   0.99340820 0.39003754 0.90724945
Xe   0.00553131 0.63124847 0.49485016
Xe   0.64916229 0.75623322 0.14652252
Xe   0.86566162 0.74322510 0.64766693
Xe   0.60808563 0.40068817 0.01595306
Xe   0.88587952 0.00848389 0.49223328
Xe   0.82769775 0.84942627 0.16444397
Xe   0.64636993 0.24051666 0.14246368
Xe   0.10955811 0.11115265 0.01009369
Xe   0.36418915 0.75302124 0.36169434
Xe   0.59831238 0.90716553 0.08775330
Xe   0.22694397 0.34910583 0.84947968
Xe   0.49670410 0.51942444 0.13319397
Xe   0.96244812 0.96015930 0.54087830
Xe   0.09658051 0.10459137 0.10826874
Xe   0.75080872 0.64867401 0.13845825
Xe   0.10958099 0.39907074 0.51377106
Xe   0.60566711 0.89471436 0.50736237
Xe   0.00032043 0.61209106 0.10744476
Xe   0.98837280 0.87194061 0.48502350
Xe   0.49805450 0.10576630 0.11656189
Xe   0.13583374 0.35578156 0.25210571
Xe   0.01532745 0.37429047 0.01380157
Xe   0.60276031 0.48596954 0.10317230
Xe   0.50859070 0.50680542 0.37478638
Xe   0.13250732 0.50706482 0.50665283
Xe   0.74418640 0.65026093 0.64549255
Xe   0.38408661 0.76479340 0.24121857
Xe   0.74445343 0.62574768 0.24042511
Xe   0.57780457 0.91431427 0.89471436
Xe   0.35171509 0.35375214 0.85454559
Xe   0.10272980 0.50630188 0.38629150
Xe   0.12770844 0.24642944 0.22662354
Xe   0.89473724 0.60885620 0.50641632
Xe   0.39994049 0.90727997 0.09613800
Xe   0.76876068 0.37552643 0.75266266
Xe   0.65296173 0.86993408 0.75395966
Xe   0.98640442 0.39374542 0.41333771
Xe   0.01868439 0.40251160 0.60711670
Xe   0.10958099 0.51451111 0.89842224
Xe   0.90156555 0.98558807 0.89571381
Xe   0.99317169 0.89918518 0.89492035
Xe   0.39052582 0.00668335 0.89868164
Xe   0.84729767 0.13737488 0.73998260
Xe   0.99404907 0.60915375 0.61497498
Xe   0.39785767 0.51157379 0.11209106
Xe   0.12632751 0.74110413 0.74066162
Xe   0.86695862 0.24389648 0.66164398
Xe   0.14939880 0.13719940 0.75093079
Xe   0.89664459 0.11389160 0.50518036
Xe   0.87060547 0.15367889 0.24501038
Xe   0.75936890 0.36425781 0.86337280
Xe   0.64969635 0.74449158 0.64934540
Xe   0.60826111 0.59696960 0.09867096
Xe   0.52389526 0.98667145 0.13957977
Xe   0.14434052 0.25772858 0.85651398
Xe   0.16120148 0.84763336 0.29248047
Xe   0.00364685 0.50197601 0.87540436
Xe   0.85794830 0.86705017 0.36074829
Xe   0.11279297 0.00215149 0.10744476
Xe   0.76896667 0.15143585 0.64669800
Xe   0.09607697 0.90504456 0.89956665
Xe   0.39226532 0.99406433 0.39568329
Xe   0.89376068 0.49712372 0.39362335
Xe   0.36998749 0.64452362 0.75613403
Xe   0.72217560 0.22400665 0.71455383
Xe   0.11935425 0.74430847 0.24492645
Xe   0.40380096 0.90872192 0.60111237
Xe   0.52030182 0.41413879 0.60882568
Xe   0.37434387 0.66303253 0.23744965
Xe   0.74739075 0.35934448 0.64614105
Xe   0.24000549 0.74533844 0.12942505
Xe   0.75648499 0.65146637 0.86687469
Xe   0.11128998 0.59893799 0.60117340
Xe   0.49952698 0.87470245 0.00164795
Xe   0.13874817 0.74478149 0.84712982
Xe   0.38408661 0.27441406 0.73492432
Xe   0.64107513 0.65632629 0.74695587
Xe   0.61702728 0.51189423 0.39288330
Xe   0.89656067 0.01816559 0.10684967
Xe   0.99578857 0.00953674 0.13018799
Xe   0.97157288 0.53681946 0.96389771
Xe   0.74185944 0.14490509 0.14881897
Xe   0.09436798 0.09046173 0.61167908
Xe   0.46047974 0.96098328 0.53749084
Xe   0.61914825 0.00933075 0.90230560
Xe   0.01415253 0.00492096 0.37252045
Xe   0.24436188 0.26164246 0.62821960
Xe   0.35365295 0.86999512 0.76352692
Xe   0.40473938 0.60459137 0.52519226
Xe   0.85650635 0.36534882 0.25310516
Xe   0.27155304 0.62142181 0.76905823
Xe   0.01114655 0.11907196 0.90536499
Xe   0.64548492 0.14596558 0.85589600
Xe   0.22596741 0.22809601 0.28888702
Xe   0.15293121 0.64482117 0.24733734
Xe   0.78641510 0.71503448 0.21017456
Xe   0.34891510 0.14043427 0.25437164
Xe   0.39429474 0.89421082 0.49779510
Xe   0.99835205 0.50468445 0.63056946
Xe   0.34138489 0.84815979 0.66588593
Xe   0.76519775 0.74696350 0.38688660
Xe   0.25222015 0.73194885 0.63210297
Xe   0.25125122 0.63769531 0.66078949
Xe   0.40009308 0.49850464 0.38305664
Xe   0.49634552 0.61606598 0.61235809
Xe   0.50762177 0.01636505 0.37502289
Xe   0.25857544 0.86576080 0.35786438
Xe   0.24607086 0.36920166 0.64840698
Xe   0.41586304 0.01133728 0.11933136
Xe   0.88187408 0.25281525 0.25440216
Xe   0.87693024 0.50489044 0.50056458
Xe   0.24388885 0.37508392 0.15611267
Xe   0.88122559 0.76685333 0.74910736
Xe   0.87328339 0.24875641 0.14937592
Xe   0.37875366 0.24649048 0.26131439
Xe   0.27011108 0.15203094 0.14431763
Xe   0.37393188 0.50091553 0.99361420
Xe   0.24745178 0.85216522 0.63410187
Xe   0.52027130 0.01775360 0.87017059
Xe   0.26293182 0.13790131 0.84957123
Xe   0.96707153 0.46437073 0.04564667
Xe   0.87046051 0.36576080 0.86283875
Xe   0.61128998 0.09664154 0.99971008
Xe   0.61550140 0.39848328 0.50806427
Xe   0.13209534 0.24340057 0.33502960
Xe   0.13716125 0.64046478 0.86692810
Xe   0.99973297 0.11035919 0.11000061
Xe   0.87342834 0.00271606 0.99385071
Xe   0.61849976 0.49002838 0.60838318
Xe   0.13839722 0.35554504 0.64710999
Xe   0.49958801 0.39627075 0.89020538
Xe   0.11817932 0.61003113 0.49253082
Xe   0.37198639 0.49877167 0.50050354
Xe   0.50391388 0.11727142 0.89421082
Xe   0.24998474 0.12463379 0.25640106
Xe   0.86845398 0.75649261 0.14295959
Xe   0.53754425 0.59799957 0.42113495
Xe   0.16123199 0.20005035 0.66517639
Xe   0.09960938 0.41563416 0.09873199
Xe   0.75083923 0.13893127 0.85171509
Xe   0.75634003 0.86864471 0.85009766
Xe   0.47469330 0.46504974 0.53395844
Xe   0.64130402 0.65029144 0.25798798
Xe   0.60923004 0.10915375 0.49064636
Xe   0.21946716 0.78447723 0.70967102
Xe   0.24774933 0.13072205 0.73659515
Xe   0.91127014 0.39359283 0.60108185
Xe   0.10243225 0.12080383 0.50736237
Xe   0.89882660 0.41204834 0.97434235
Xe   0.04367065 0.53379059 0.04208374
Xe   0.51409149 0.39921570 0.11291504
Xe   0.04372406 0.58817291 0.40866089
Xe   0.04063416 0.46589661 0.47431183
Xe   0.03863525 0.03661346 0.03666687
Xe   0.16861725 0.14249420 0.34329987
Xe   0.37610626 0.00170898 0.00524139
Xe   0.46894836 0.46607971 0.04214478
Xe   0.02559662 0.60609436 0.89244843
Xe   0.26337433 0.65956116 0.86331177
Xe   0.39570618 0.61318207 0.01371765
Xe   0.50567627 0.99861908 0.63012695
Xe   0.10884857 0.39559937 0.89541626
Xe   0.34832764 0.34256744 0.15773010
Xe   0.85471344 0.64699554 0.65714264
Xe   0.14954376 0.86487579 0.74686432
Xe   0.77063751 0.24436951 0.38397217
Xe   0.89888763 0.51674652 0.10876465
Xe   0.60987854 0.61150360 0.49246979
Xe   0.90888977 0.60356140 0.02381134
Xe   0.49640656 0.62030792 0.10494232
Xe   0.88726044 0.23333740 0.76993561
Xe   0.11464691 0.01071930 0.88958740
Xe   0.87277985 0.85281372 0.25804901
Xe   0.25271606 0.26967621 0.13004303
Xe   0.47342682 0.91410828 0.90371704
Xe   0.27758789 0.15726471 0.35819244
Xe   0.14604187 0.13669586 0.24751282
Xe   0.13539124 0.00050354 0.00009155
Xe   0.84588623 0.34400940 0.65932465
Xe   0.62209320 0.76653290 0.75855255
Xe   0.00082397 0.11203766 0.39615631
Xe   0.64148712 0.15900421 0.75481415
Xe   0.61090851 0.01068878 0.39541626
Xe   0.74668884 0.86534882 0.35186768
Xe   0.11423492 0.39506531 0.00229645
Xe   0.24995422 0.37541199 0.25755310
Xe   0.10390472 0.49376678 0.60829163
Xe   0.65145874 0.64793396 0.85739899
Xe   0.28723907 0.27959442 0.21891022
Xe   0.60896301 0.61006165 0.61232758
Xe   0.50917816 0.60405731 0.88882446
Xe   0.49599457 0.39353943 0.39418030
Xe   0.60208130 0.97985077 0.59169769
Xe   0.89756012 0.48879242 0.89253235
Xe   0.65581512 0.86367035 0.26649475
Xe   0.62182617 0.24796295 0.24863434
Xe   0.60523224 0.89439392 0.99188232
Xe   0.66126251 0.15538025 0.22635651
Xe   0.63507080 0.50833130 0.50126648
Xe   0.46132660 0.03905487 0.46727753
Xe   0.63298035 0.49850464 0.00779724
Xe   0.49414062 0.10188293 0.59846497
Xe   0.61759186 0.59387970 0.99652863
Xe   0.39082336 0.51192474 0.60161591
Xe   0.74630737 0.36943817 0.16143799
Xe   0.89382172 0.08755493 0.91168976
Xe   0.13689423 0.49532318 0.01224518
Xe   0.60260773 0.40598297 0.39988708
Xe   0.87451935 0.51095581 0.00697327
Xe   0.40621185 0.50109100 0.88809204
Xe   0.89523315 0.90268707 0.59004974
Xe   0.36219025 0.86169434 0.25693512
Xe   0.84753418 0.65699768 0.79333496
Xe   0.10166931 0.60744476 0.00079346
Xe   0.64610291 0.66756439 0.35727692
Xe   0.39679718 0.10903168 0.01132965
Xe   0.00326538 0.13413239 0.00815582
Xe   0.25678253 0.36546326 0.35242462
Xe   0.12232971 0.00485992 0.39736176
Xe   0.13865662 0.86743927 0.64402008
Xe   0.50711823 0.37364197 0.49947357
Xe   0.01721191 0.89704132 0.10282135
Xe   0.25857544 0.88249969 0.23883820
Xe   0.47103882 0.96401978 0.04319763
Xe   0.74227142 0.37976837 0.27014160
Xe   0.89244080 0.89392090 0.99797058
Xe   0.03825378 0.97031403 0.95859528
Xe   0.60664368 0.41007233 0.90557098
Xe   0.22517395 0.26605988 0.38243866
Xe   0.98963928 0.49164581 0.37408447
Xe   0.91410065 0.60467529 0.39994812
Xe   0.79462433 0.71426392 0.71464539
Xe   0.54920197 0.96913910 0.46266174
Xe   0.76410675 0.88677216 0.24416351
Xe   0.50090790 0.11221313 0.39968109
Xe   0.35150909 0.74286652 0.85071564
Xe   0.36807251 0.99774170 0.49485016
Xe   0.48778534 0.51983643 0.63378143
Xe   0.00547028 0.90404510 0.39244843
Xe   0.23732758 0.76888275 0.88665009
Xe   0.00540924 0.63037109 0.99461365
Xe   0.35588837 0.65223694 0.64413452
Xe   0.85285950 0.64028931 0.23659515
Xe   0.40229797 0.39200592 0.99023438
Xe   0.24659729 0.38720703 0.75714111
Xe   0.49572754 0.87832642 0.47566223
Xe   0.75228119 0.14678955 0.36904907
Xe   0.39997101 0.89215088 0.99285126
Xe   0.63963318 0.24546051 0.85224915
Xe   0.99281311 0.51092529 0.13542938
Xe   0.51603699 0.50986481 0.86684418
Xe   0.85168457 0.26179504 0.86846161
Xe   0.61090851 0.12107086 0.11079407
Xe   0.26072693 0.15455627 0.63795471
Xe   0.41094971 0.41613770 0.60223389
Xe   0.36280823 0.85925293 0.36402130
Xe   0.15602112 0.66976929 0.66509247
Xe   0.35842133 0.24533844 0.64001465
Xe   0.15148926 0.35654449 0.76584625
Xe   0.35156250 0.65850067 0.33703613
Xe   0.51197052 0.89368439 0.59199524
Xe   0.85344696 0.75164032 0.85516357
Xe   0.97607422 0.04741669 0.46710205
Xe   0.33261108 0.25514221 0.36407471
Xe   0.25919342 0.88550568 0.74098206
Xe   0.75166321 0.62254333 0.75925446
Xe   0.35903931 0.24625397 0.85948944
Xe   0.34597778 0.74375153 0.13536835
Xe   0.90583038 0.60514832 0.91018677
Xe   0.39411926 0.60120392 0.41260529
Xe   0.63041687 0.98879242 0.01730347
Xe   0.64363098 0.86308289 0.64549255
Xe   0.00529480 0.01124573 0.87184906
Xe   0.86698914 0.64016724 0.13671875
Xe   0.63809967 0.35652161 0.25219727
Xe   0.40144348 0.40734100 0.10600281
Xe   0.14039612 0.76119995 0.64305115
Xe   0.24262238 0.84783936 0.13283539
Xe   0.89626312 0.02472687 0.60691071
Xe   0.74683380 0.25463867 0.87207794
Xe   0.26499176 0.74681091 0.38529205
Xe   0.29318237 0.78900909 0.29362488
Xe   0.10043335 0.10179138 0.40609741
Xe   0.04264069 0.96195984 0.46392059
Xe   0.54566956 0.53314209 0.55349731
Xe   0.01171112 0.37164307 0.51459503
Xe   0.62830353 0.25999451 0.74018860
Xe   0.18059540 0.19163513 0.15496826
Xe   0.75627899 0.88073730 0.74627686
Xe   0.65860748 0.85858154 0.15511322
Xe   0.25498199 0.64458466 0.15187836
Xe   0.34838867 0.14240265 0.75740051
Xe   0.21511078 0.78762817 0.21759033
Xe   0.35612488 0.75381470 0.64022064
Xe   0.60678864 0.52198792 0.90998077
Xe   0.50476074 0.89038849 0.10641479
Xe   0.74713135 0.64087677 0.35415649
Xe   0.99734497 0.11662292 0.61511993
Xe   0.28485107 0.79775238 0.79495239
Xe   0.00876617 0.89321136 0.60735321
Xe   0.50261688 0.13336945 0.50576782
Xe   0.46818542 0.05056000 0.95724487
Xe   0.25263214 0.86414337 0.85907745
Xe   0.25798798 0.64360809 0.36548615
Xe   0.28559113 0.71356201 0.21302795
Xe   0.96221161 0.96607971 0.03434753
Xe   0.55129242 0.48237610 0.46404266
Xe   0.73503113 0.12671661 0.74318695
Xe   0.77217102 0.76761627 0.11865234
Xe   0.86445618 0.33798218 0.76349640
Xe   0.51197052 0.63545990 0.99432373
Xe   0.64006805 0.37073517 0.63607788
Xe   0.12185669 0.24251556 0.74418640
Xe   0.75778198 0.75902557 0.87684631
Xe   0.84900665 0.34530640 0.15570068
Xe   0.45664978 0.55006409 0.96147919
Xe   0.71275330 0.71112061 0.29574585
Xe   0.63765717 0.01118469 0.50256348
Xe   0.13468933 0.00397491 0.51065826
Xe   0.77164459 0.27791595 0.11733246
Xe   0.53842926 0.54350281 0.03622437
Xe   0.51744843 0.13531494 0.99552917
Xe   0.10425568 0.50927734 0.11779785
Xe   0.29827118 0.28504181 0.79295349
Xe   0.84285736 0.66564941 0.33847809
Xe   0.00773621 0.87858582 0.99829865
Xe   0.66210938 0.15841675 0.65858459
Xe   0.76719666 0.26943970 0.61662292
Xe   0.79138947 0.79624939 0.28721619
Xe   0.34620667 0.34565735 0.65417480
Xe   0.35259247 0.37470245 0.75422668
Xe   0.21428680 0.20529175 0.78894806
Xe   0.78720856 0.29439545 0.29792786
Xe   0.25109863 0.25010681 0.88173676
Xe   0.21151733 0.70855713 0.28894806
Xe   0.99993896 0.39810181 0.11332703
Xe   0.71743774 0.71814728 0.79244995
Xe   0.52424622 0.46301270 0.95385742
Xe   0.65407562 0.85286713 0.85153961
Xe   0.89046478 0.49473572 0.61026764
Xe   0.34774017 0.23760223 0.14460754
Xe   0.97280884 0.04567719 0.96204376
Xe   0.04784393 0.46077728 0.96754456
Xe   0.26981354 0.62380981 0.26779175
Xe   0.76402283 0.12257385 0.26319885
Xe   0.53975677 0.04691315 0.04428864
Xe   0.50749969 0.62303925 0.51601410
Xe   0.03359985 0.54570770 0.54620361
Xe   0.96471405 0.54064178 0.46109772
Xe   0.71125793 0.21920776 0.29636383
Xe   0.85236359 0.15835571 0.84674072
Xe   0.96218109 0.47293091 0.54587555
Xe   0.28614807 0.21977234 0.71514893
Xe   0.20569611 0.29086304 0.71529388
Xe   0.30162811 0.71844482 0.72253418
Xe   0.77828979 0.27479553 0.78417969
Xe   0.15934753 0.33827209 0.34895325
Xe   0.53895569 0.03322601 0.53907776
Xe   0.72399902 0.79469299 0.71885681
Xe   0.70834351 0.28777313 0.20746613
Xe   0.84241486 0.84066010 0.66747284
Xe   0.53095245 0.96934509 0.96669006
Xe   0.84953308 0.16000366 0.34203339
Xe   0.22246552 0.71520996 0.78865814
Xe   0.66164398 0.34754181 0.84621429
Xe   0.79071045 0.21912384 0.21885681
Xe   0.65802002 0.66070557 0.15932465
Xe   0.72891235 0.79607391 0.20590210
