data_CONTCAR_SOD_ZIF_VASP_opti
_audit_creation_date              07-10-2017
_audit_creation_method            'Sponge Bob'
_symmetry_space_group_name_H-M    'P1'
_symmetry_Int_Tables_number       1
_symmetry_cell_setting            triclinic
loop_
_symmetry_equiv_pos_as_xyz
x,y,z
_cell_length_a                    34.5042
_cell_length_b                    34.5054
_cell_length_c                    34.5044
_cell_angle_alpha                 89.9922
_cell_angle_beta                  89.9929
_cell_angle_gamma                 89.9925
loop_
_atom_site_label
_atom_site_fract_x
_atom_site_fract_y
_atom_site_fract_z
_atom_site_charge
C     0.30297   0.49649   0.19002     0
C     0.33108   0.49652   0.13380     0
C     0.35922   0.49651   0.16197     0
C     0.05298   0.24649   0.44002     0
C     0.08109   0.24652   0.38380     0
C     0.10923   0.24650   0.41197     0
C     0.19009   0.49647   0.19010     0
C     0.16202   0.49652   0.13387     0
C     0.13386   0.49652   0.16202     0
C     0.44009   0.24646   0.44010     0
C     0.41202   0.24653   0.38387     0
C     0.38386   0.24653   0.41202     0
C     0.05295   0.24652   0.05296     0
C     0.08103   0.24649   0.10919     0
C     0.10918   0.24649   0.08103     0
C     0.30295   0.49652   0.30295     0
C     0.33102   0.49648   0.35919     0
C     0.35918   0.49648   0.33103     0
C     0.44002   0.24649   0.05299     0
C     0.41196   0.24651   0.10924     0
C     0.38380   0.24652   0.08110     0
C     0.19002   0.49649   0.30298     0
C     0.16196   0.49651   0.35923     0
C     0.13380   0.49652   0.33109     0
C     0.19002   0.30299   0.49649     0
C     0.16197   0.35924   0.49650     0
C     0.13380   0.33110   0.49652     0
C     0.44002   0.05299   0.24649     0
C     0.41196   0.10923   0.24650     0
C     0.38380   0.08109   0.24652     0
C     0.49649   0.19003   0.30298     0
C     0.49650   0.16197   0.35923     0
C     0.49652   0.13381   0.33109     0
C     0.24649   0.44003   0.05298     0
C     0.24650   0.41197   0.10923     0
C     0.24651   0.38381   0.08109     0
C     0.05298   0.44003   0.24649     0
C     0.08109   0.38381   0.24652     0
C     0.10923   0.41197   0.24650     0
C     0.30297   0.19003   0.49649     0
C     0.33108   0.13381   0.49652     0
C     0.35922   0.16197   0.49650     0
C     0.49647   0.19010   0.19010     0
C     0.49652   0.16203   0.13386     0
C     0.49652   0.13387   0.16202     0
C     0.24645   0.44011   0.44010     0
C     0.24651   0.41203   0.38387     0
C     0.24651   0.38388   0.41202     0
C     0.19010   0.19010   0.49647     0
C     0.16201   0.13387   0.49652     0
C     0.13386   0.16203   0.49652     0
C     0.44009   0.44010   0.24646     0
C     0.41202   0.38388   0.24653     0
C     0.38386   0.41203   0.24653     0
C     0.24650   0.05296   0.05295     0
C     0.24648   0.10918   0.08103     0
C     0.24648   0.08103   0.10918     0
C     0.49651   0.30296   0.30296     0
C     0.49648   0.35919   0.33103     0
C     0.49648   0.33103   0.35919     0
C     0.05295   0.05296   0.24652     0
C     0.08103   0.10919   0.24648     0
C     0.10918   0.08103   0.24648     0
C     0.30295   0.30296   0.49651     0
C     0.33103   0.35919   0.49648     0
C     0.35918   0.33104   0.49648     0
C     0.24649   0.05299   0.44002     0
C     0.24651   0.08109   0.38380     0
C     0.24650   0.10923   0.41197     0
C     0.49649   0.30299   0.19002     0
C     0.49652   0.33110   0.13380     0
C     0.49650   0.35924   0.16197     0
H     0.28071   0.49648   0.21227     0
H     0.39057   0.49650   0.15949     0
H     0.33360   0.49652   0.10246     0
H     0.03072   0.24647   0.46227     0
H     0.14058   0.24650   0.40949     0
H     0.08361   0.24652   0.35246     0
H     0.21235   0.49643   0.21235     0
H     0.10252   0.49653   0.15953     0
H     0.15952   0.49653   0.10252     0
H     0.46234   0.24641   0.46235     0
H     0.35251   0.24655   0.40952     0
H     0.40952   0.24655   0.35252     0
H     0.03070   0.24653   0.03071     0
H     0.14053   0.24647   0.08353     0
H     0.08353   0.24647   0.14053     0
H     0.28070   0.49653   0.28070     0
H     0.39053   0.49646   0.33353     0
H     0.33352   0.49646   0.39053     0
H     0.46226   0.24648   0.03072     0
H     0.35245   0.24652   0.08361     0
H     0.40948   0.24650   0.14058     0
H     0.21227   0.49648   0.28072     0
H     0.10246   0.49652   0.33361     0
H     0.15949   0.49650   0.39058     0
H     0.21226   0.28073   0.49647     0
H     0.10246   0.33362   0.49652     0
H     0.15949   0.39058   0.49650     0
H     0.46226   0.03072   0.24647     0
H     0.35245   0.08361   0.24652     0
H     0.40948   0.14058   0.24650     0
H     0.49647   0.21227   0.28071     0
H     0.49652   0.10247   0.33361     0
H     0.49650   0.15949   0.39057     0
H     0.24647   0.46227   0.03072     0
H     0.24652   0.35247   0.08361     0
H     0.24650   0.40950   0.14058     0
H     0.03072   0.46227   0.24647     0
H     0.14058   0.40949   0.24650     0
H     0.08361   0.35247   0.24652     0
H     0.28071   0.21227   0.49647     0
H     0.39057   0.15949   0.49650     0
H     0.33360   0.10247   0.49652     0
H     0.49643   0.21235   0.21235     0
H     0.49653   0.10253   0.15952     0
H     0.49653   0.15954   0.10252     0
H     0.24640   0.46236   0.46235     0
H     0.24653   0.35253   0.40952     0
H     0.24653   0.40954   0.35252     0
H     0.21235   0.21235   0.49643     0
H     0.10252   0.15954   0.49653     0
H     0.15951   0.10253   0.49653     0
H     0.46235   0.46235   0.24640     0
H     0.35252   0.40954   0.24655     0
H     0.40952   0.35253   0.24655     0
H     0.24652   0.03071   0.03070     0
H     0.24646   0.08352   0.14053     0
H     0.24646   0.14053   0.08353     0
H     0.49653   0.28071   0.28071     0
H     0.49646   0.33353   0.39053     0
H     0.49646   0.39054   0.33353     0
H     0.03070   0.03071   0.24653     0
H     0.14053   0.08353   0.24646     0
H     0.08352   0.14053   0.24646     0
H     0.28070   0.28071   0.49653     0
H     0.39053   0.33353   0.49646     0
H     0.33352   0.39054   0.49646     0
H     0.24647   0.03072   0.46227     0
H     0.24650   0.14058   0.40949     0
H     0.24652   0.08361   0.35246     0
H     0.49647   0.28073   0.21227     0
H     0.49650   0.39058   0.15949     0
H     0.49652   0.33362   0.10246     0
N     0.29541   0.49651   0.15182     0
N     0.34117   0.49650   0.19762     0
N     0.04542   0.24651   0.40182     0
N     0.09118   0.24649   0.44762     0
N     0.19768   0.49649   0.15190     0
N     0.15189   0.49649   0.19768     0
N     0.44768   0.24649   0.40189     0
N     0.40189   0.24649   0.44768     0
N     0.04537   0.24651   0.09116     0
N     0.09115   0.24651   0.04537     0
N     0.29536   0.49650   0.34115     0
N     0.34115   0.49650   0.29537     0
N     0.44762   0.24649   0.09118     0
N     0.40181   0.24651   0.04542     0
N     0.19762   0.49649   0.34118     0
N     0.15182   0.49651   0.29542     0
N     0.19762   0.34118   0.49649     0
N     0.15182   0.29543   0.49650     0
N     0.44762   0.09118   0.24649     0
N     0.40181   0.04542   0.24650     0
N     0.49649   0.19763   0.34117     0
N     0.49650   0.15183   0.29541     0
N     0.24649   0.44762   0.09118     0
N     0.24650   0.40182   0.04542     0
N     0.04542   0.40182   0.24651     0
N     0.09118   0.44763   0.24649     0
N     0.29541   0.15183   0.49651     0
N     0.34117   0.19763   0.49649     0
N     0.49649   0.19769   0.15190     0
N     0.49649   0.15190   0.19768     0
N     0.24648   0.44769   0.40190     0
N     0.24648   0.40191   0.44769     0
N     0.19768   0.15190   0.49649     0
N     0.15190   0.19769   0.49649     0
N     0.44768   0.40190   0.24649     0
N     0.40189   0.44769   0.24649     0
N     0.24650   0.09116   0.04536     0
N     0.24650   0.04537   0.09115     0
N     0.49650   0.34116   0.29537     0
N     0.49650   0.29537   0.34116     0
N     0.04536   0.09116   0.24650     0
N     0.09115   0.04537   0.24650     0
N     0.29536   0.34116   0.49650     0
N     0.34115   0.29537   0.49650     0
N     0.24650   0.04542   0.40182     0
N     0.24649   0.09118   0.44762     0
N     0.49650   0.29543   0.15182     0
N     0.49649   0.34118   0.19762     0
Zn    0.12150   0.24654   0.49649     0
Zn    0.37150   0.49654   0.24649     0
Zn    0.12150   0.49649   0.24653     0
Zn    0.37150   0.24649   0.49653     0
Zn    0.49649   0.12151   0.24653     0
Zn    0.24649   0.37152   0.49653     0
Zn    0.24653   0.49649   0.12150     0
Zn    0.49653   0.24649   0.37150     0
Zn    0.24653   0.12151   0.49649     0
Zn    0.49653   0.37152   0.24649     0
Zn    0.49649   0.24654   0.12151     0
Zn    0.24649   0.49654   0.37151     0
C     0.80297   0.49649   0.19002     0
C     0.83108   0.49652   0.13380     0
C     0.85922   0.49651   0.16197     0
C     0.55298   0.24649   0.44002     0
C     0.58109   0.24652   0.38380     0
C     0.60923   0.24650   0.41197     0
C     0.69009   0.49647   0.19010     0
C     0.66202   0.49652   0.13387     0
C     0.63386   0.49652   0.16202     0
C     0.94009   0.24646   0.44010     0
C     0.91202   0.24653   0.38387     0
C     0.88386   0.24653   0.41202     0
C     0.55295   0.24652   0.05296     0
C     0.58103   0.24649   0.10919     0
C     0.60918   0.24649   0.08103     0
C     0.80295   0.49652   0.30295     0
C     0.83102   0.49648   0.35919     0
C     0.85918   0.49648   0.33103     0
C     0.94002   0.24649   0.05299     0
C     0.91196   0.24651   0.10924     0
C     0.88380   0.24652   0.08110     0
C     0.69002   0.49649   0.30298     0
C     0.66196   0.49651   0.35923     0
C     0.63380   0.49652   0.33109     0
C     0.69002   0.30299   0.49649     0
C     0.66197   0.35924   0.49650     0
C     0.63380   0.33110   0.49652     0
C     0.94002   0.05299   0.24649     0
C     0.91196   0.10923   0.24650     0
C     0.88380   0.08109   0.24652     0
C     0.99649   0.19003   0.30298     0
C     0.99650   0.16197   0.35923     0
C     0.99652   0.13381   0.33109     0
C     0.74649   0.44003   0.05298     0
C     0.74650   0.41197   0.10923     0
C     0.74651   0.38381   0.08109     0
C     0.55298   0.44003   0.24649     0
C     0.58109   0.38381   0.24652     0
C     0.60923   0.41197   0.24650     0
C     0.80297   0.19003   0.49649     0
C     0.83108   0.13381   0.49652     0
C     0.85922   0.16197   0.49650     0
C     0.99647   0.19010   0.19010     0
C     0.99652   0.16203   0.13386     0
C     0.99652   0.13387   0.16202     0
C     0.74645   0.44011   0.44010     0
C     0.74651   0.41203   0.38387     0
C     0.74651   0.38388   0.41202     0
C     0.69010   0.19010   0.49647     0
C     0.66201   0.13387   0.49652     0
C     0.63386   0.16203   0.49652     0
C     0.94009   0.44010   0.24646     0
C     0.91202   0.38388   0.24653     0
C     0.88386   0.41203   0.24653     0
C     0.74650   0.05296   0.05295     0
C     0.74648   0.10918   0.08103     0
C     0.74648   0.08103   0.10918     0
C     0.99651   0.30296   0.30296     0
C     0.99648   0.35919   0.33103     0
C     0.99648   0.33103   0.35919     0
C     0.55295   0.05296   0.24652     0
C     0.58103   0.10919   0.24648     0
C     0.60918   0.08103   0.24648     0
C     0.80295   0.30296   0.49651     0
C     0.83103   0.35919   0.49648     0
C     0.85918   0.33104   0.49648     0
C     0.74649   0.05299   0.44002     0
C     0.74651   0.08109   0.38380     0
C     0.74650   0.10923   0.41197     0
C     0.99649   0.30299   0.19002     0
C     0.99652   0.33110   0.13380     0
C     0.99650   0.35924   0.16197     0
H     0.78071   0.49648   0.21227     0
H     0.89057   0.49650   0.15949     0
H     0.83360   0.49652   0.10246     0
H     0.53072   0.24647   0.46227     0
H     0.64058   0.24650   0.40949     0
H     0.58361   0.24652   0.35246     0
H     0.71235   0.49643   0.21235     0
H     0.60252   0.49653   0.15953     0
H     0.65952   0.49653   0.10252     0
H     0.96234   0.24641   0.46235     0
H     0.85251   0.24655   0.40952     0
H     0.90952   0.24655   0.35252     0
H     0.53070   0.24653   0.03071     0
H     0.64053   0.24647   0.08353     0
H     0.58353   0.24647   0.14053     0
H     0.78070   0.49653   0.28070     0
H     0.89053   0.49646   0.33353     0
H     0.83352   0.49646   0.39053     0
H     0.96226   0.24648   0.03072     0
H     0.85245   0.24652   0.08361     0
H     0.90948   0.24650   0.14058     0
H     0.71227   0.49648   0.28072     0
H     0.60246   0.49652   0.33361     0
H     0.65949   0.49650   0.39058     0
H     0.71226   0.28073   0.49647     0
H     0.60246   0.33362   0.49652     0
H     0.65949   0.39058   0.49650     0
H     0.96226   0.03072   0.24647     0
H     0.85245   0.08361   0.24652     0
H     0.90948   0.14058   0.24650     0
H     0.99647   0.21227   0.28071     0
H     0.99652   0.10247   0.33361     0
H     0.99650   0.15949   0.39057     0
H     0.74647   0.46227   0.03072     0
H     0.74652   0.35247   0.08361     0
H     0.74650   0.40950   0.14058     0
H     0.53072   0.46227   0.24647     0
H     0.64058   0.40949   0.24650     0
H     0.58361   0.35247   0.24652     0
H     0.78071   0.21227   0.49647     0
H     0.89057   0.15949   0.49650     0
H     0.83360   0.10247   0.49652     0
H     0.99643   0.21235   0.21235     0
H     0.99653   0.10253   0.15952     0
H     0.99653   0.15954   0.10252     0
H     0.74640   0.46236   0.46235     0
H     0.74653   0.35253   0.40952     0
H     0.74653   0.40954   0.35252     0
H     0.71235   0.21235   0.49643     0
H     0.60252   0.15954   0.49653     0
H     0.65951   0.10253   0.49653     0
H     0.96235   0.46235   0.24640     0
H     0.85252   0.40954   0.24655     0
H     0.90952   0.35253   0.24655     0
H     0.74652   0.03071   0.03070     0
H     0.74646   0.08352   0.14053     0
H     0.74646   0.14053   0.08353     0
H     0.99653   0.28071   0.28071     0
H     0.99646   0.33353   0.39053     0
H     0.99646   0.39054   0.33353     0
H     0.53070   0.03071   0.24653     0
H     0.64053   0.08353   0.24646     0
H     0.58352   0.14053   0.24646     0
H     0.78070   0.28071   0.49653     0
H     0.89053   0.33353   0.49646     0
H     0.83352   0.39054   0.49646     0
H     0.74647   0.03072   0.46227     0
H     0.74650   0.14058   0.40949     0
H     0.74652   0.08361   0.35246     0
H     0.99647   0.28073   0.21227     0
H     0.99650   0.39058   0.15949     0
H     0.99652   0.33362   0.10246     0
N     0.79541   0.49651   0.15182     0
N     0.84117   0.49650   0.19762     0
N     0.54542   0.24651   0.40182     0
N     0.59118   0.24649   0.44762     0
N     0.69768   0.49649   0.15190     0
N     0.65189   0.49649   0.19768     0
N     0.94768   0.24649   0.40189     0
N     0.90189   0.24649   0.44768     0
N     0.54537   0.24651   0.09116     0
N     0.59115   0.24651   0.04537     0
N     0.79536   0.49650   0.34115     0
N     0.84115   0.49650   0.29537     0
N     0.94762   0.24649   0.09118     0
N     0.90181   0.24651   0.04542     0
N     0.69762   0.49649   0.34118     0
N     0.65182   0.49651   0.29542     0
N     0.69762   0.34118   0.49649     0
N     0.65182   0.29543   0.49650     0
N     0.94762   0.09118   0.24649     0
N     0.90181   0.04542   0.24650     0
N     0.99649   0.19763   0.34117     0
N     0.99650   0.15183   0.29541     0
N     0.74649   0.44762   0.09118     0
N     0.74650   0.40182   0.04542     0
N     0.54542   0.40182   0.24651     0
N     0.59118   0.44763   0.24649     0
N     0.79541   0.15183   0.49651     0
N     0.84117   0.19763   0.49649     0
N     0.99649   0.19769   0.15190     0
N     0.99649   0.15190   0.19768     0
N     0.74648   0.44769   0.40190     0
N     0.74648   0.40191   0.44769     0
N     0.69768   0.15190   0.49649     0
N     0.65190   0.19769   0.49649     0
N     0.94768   0.40190   0.24649     0
N     0.90189   0.44769   0.24649     0
N     0.74650   0.09116   0.04536     0
N     0.74650   0.04537   0.09115     0
N     0.99650   0.34116   0.29537     0
N     0.99650   0.29537   0.34116     0
N     0.54536   0.09116   0.24650     0
N     0.59115   0.04537   0.24650     0
N     0.79536   0.34116   0.49650     0
N     0.84115   0.29537   0.49650     0
N     0.74650   0.04542   0.40182     0
N     0.74649   0.09118   0.44762     0
N     0.99650   0.29543   0.15182     0
N     0.99649   0.34118   0.19762     0
Zn    0.62150   0.24654   0.49649     0
Zn    0.87150   0.49654   0.24649     0
Zn    0.62150   0.49649   0.24653     0
Zn    0.87150   0.24649   0.49653     0
Zn    0.99649   0.12151   0.24653     0
Zn    0.74649   0.37152   0.49653     0
Zn    0.74653   0.49649   0.12150     0
Zn    0.99653   0.24649   0.37150     0
Zn    0.74653   0.12151   0.49649     0
Zn    0.99653   0.37152   0.24649     0
Zn    0.99649   0.24654   0.12151     0
Zn    0.74649   0.49654   0.37151     0
C     0.30297   0.99649   0.19002     0
C     0.33108   0.99652   0.13380     0
C     0.35922   0.99651   0.16197     0
C     0.05298   0.74649   0.44002     0
C     0.08109   0.74652   0.38380     0
C     0.10923   0.74650   0.41197     0
C     0.19009   0.99647   0.19010     0
C     0.16202   0.99652   0.13387     0
C     0.13386   0.99652   0.16202     0
C     0.44009   0.74646   0.44010     0
C     0.41202   0.74653   0.38387     0
C     0.38386   0.74653   0.41202     0
C     0.05295   0.74652   0.05296     0
C     0.08103   0.74649   0.10919     0
C     0.10918   0.74649   0.08103     0
C     0.30295   0.99652   0.30295     0
C     0.33102   0.99648   0.35919     0
C     0.35918   0.99648   0.33103     0
C     0.44002   0.74649   0.05299     0
C     0.41196   0.74651   0.10924     0
C     0.38380   0.74652   0.08110     0
C     0.19002   0.99649   0.30298     0
C     0.16196   0.99651   0.35923     0
C     0.13380   0.99652   0.33109     0
C     0.19002   0.80299   0.49649     0
C     0.16197   0.85924   0.49650     0
C     0.13380   0.83110   0.49652     0
C     0.44002   0.55299   0.24649     0
C     0.41196   0.60923   0.24650     0
C     0.38380   0.58109   0.24652     0
C     0.49649   0.69003   0.30298     0
C     0.49650   0.66197   0.35923     0
C     0.49652   0.63381   0.33109     0
C     0.24649   0.94003   0.05298     0
C     0.24650   0.91197   0.10923     0
C     0.24651   0.88381   0.08109     0
C     0.05298   0.94003   0.24649     0
C     0.08109   0.88381   0.24652     0
C     0.10923   0.91197   0.24650     0
C     0.30297   0.69003   0.49649     0
C     0.33108   0.63381   0.49652     0
C     0.35922   0.66197   0.49650     0
C     0.49647   0.69010   0.19010     0
C     0.49652   0.66203   0.13386     0
C     0.49652   0.63387   0.16202     0
C     0.24645   0.94011   0.44010     0
C     0.24651   0.91203   0.38387     0
C     0.24651   0.88388   0.41202     0
C     0.19010   0.69010   0.49647     0
C     0.16201   0.63387   0.49652     0
C     0.13386   0.66203   0.49652     0
C     0.44009   0.94010   0.24646     0
C     0.41202   0.88388   0.24653     0
C     0.38386   0.91203   0.24653     0
C     0.24650   0.55296   0.05295     0
C     0.24648   0.60918   0.08103     0
C     0.24648   0.58103   0.10918     0
C     0.49651   0.80296   0.30296     0
C     0.49648   0.85919   0.33103     0
C     0.49648   0.83103   0.35919     0
C     0.05295   0.55296   0.24652     0
C     0.08103   0.60919   0.24648     0
C     0.10918   0.58103   0.24648     0
C     0.30295   0.80296   0.49651     0
C     0.33103   0.85919   0.49648     0
C     0.35918   0.83104   0.49648     0
C     0.24649   0.55299   0.44002     0
C     0.24651   0.58109   0.38380     0
C     0.24650   0.60923   0.41197     0
C     0.49649   0.80299   0.19002     0
C     0.49652   0.83110   0.13380     0
C     0.49650   0.85924   0.16197     0
H     0.28071   0.99648   0.21227     0
H     0.39057   0.99650   0.15949     0
H     0.33360   0.99652   0.10246     0
H     0.03072   0.74647   0.46227     0
H     0.14058   0.74650   0.40949     0
H     0.08361   0.74652   0.35246     0
H     0.21235   0.99643   0.21235     0
H     0.10252   0.99653   0.15953     0
H     0.15952   0.99653   0.10252     0
H     0.46234   0.74641   0.46235     0
H     0.35251   0.74655   0.40952     0
H     0.40952   0.74655   0.35252     0
H     0.03070   0.74653   0.03071     0
H     0.14053   0.74647   0.08353     0
H     0.08353   0.74647   0.14053     0
H     0.28070   0.99653   0.28070     0
H     0.39053   0.99646   0.33353     0
H     0.33352   0.99646   0.39053     0
H     0.46226   0.74648   0.03072     0
H     0.35245   0.74652   0.08361     0
H     0.40948   0.74650   0.14058     0
H     0.21227   0.99648   0.28072     0
H     0.10246   0.99652   0.33361     0
H     0.15949   0.99650   0.39058     0
H     0.21226   0.78073   0.49647     0
H     0.10246   0.83362   0.49652     0
H     0.15949   0.89058   0.49650     0
H     0.46226   0.53072   0.24647     0
H     0.35245   0.58361   0.24652     0
H     0.40948   0.64058   0.24650     0
H     0.49647   0.71227   0.28071     0
H     0.49652   0.60247   0.33361     0
H     0.49650   0.65949   0.39057     0
H     0.24647   0.96227   0.03072     0
H     0.24652   0.85247   0.08361     0
H     0.24650   0.90950   0.14058     0
H     0.03072   0.96227   0.24647     0
H     0.14058   0.90949   0.24650     0
H     0.08361   0.85247   0.24652     0
H     0.28071   0.71227   0.49647     0
H     0.39057   0.65949   0.49650     0
H     0.33360   0.60247   0.49652     0
H     0.49643   0.71235   0.21235     0
H     0.49653   0.60253   0.15952     0
H     0.49653   0.65954   0.10252     0
H     0.24640   0.96236   0.46235     0
H     0.24653   0.85253   0.40952     0
H     0.24653   0.90954   0.35252     0
H     0.21235   0.71235   0.49643     0
H     0.10252   0.65954   0.49653     0
H     0.15951   0.60253   0.49653     0
H     0.46235   0.96235   0.24640     0
H     0.35252   0.90954   0.24655     0
H     0.40952   0.85253   0.24655     0
H     0.24652   0.53071   0.03070     0
H     0.24646   0.58352   0.14053     0
H     0.24646   0.64053   0.08353     0
H     0.49653   0.78071   0.28071     0
H     0.49646   0.83353   0.39053     0
H     0.49646   0.89054   0.33353     0
H     0.03070   0.53071   0.24653     0
H     0.14053   0.58353   0.24646     0
H     0.08352   0.64053   0.24646     0
H     0.28070   0.78071   0.49653     0
H     0.39053   0.83353   0.49646     0
H     0.33352   0.89054   0.49646     0
H     0.24647   0.53072   0.46227     0
H     0.24650   0.64058   0.40949     0
H     0.24652   0.58361   0.35246     0
H     0.49647   0.78073   0.21227     0
H     0.49650   0.89058   0.15949     0
H     0.49652   0.83362   0.10246     0
N     0.29541   0.99651   0.15182     0
N     0.34117   0.99650   0.19762     0
N     0.04542   0.74651   0.40182     0
N     0.09118   0.74649   0.44762     0
N     0.19768   0.99649   0.15190     0
N     0.15189   0.99649   0.19768     0
N     0.44768   0.74649   0.40189     0
N     0.40189   0.74649   0.44768     0
N     0.04537   0.74651   0.09116     0
N     0.09115   0.74651   0.04537     0
N     0.29536   0.99650   0.34115     0
N     0.34115   0.99650   0.29537     0
N     0.44762   0.74649   0.09118     0
N     0.40181   0.74651   0.04542     0
N     0.19762   0.99649   0.34118     0
N     0.15182   0.99651   0.29542     0
N     0.19762   0.84118   0.49649     0
N     0.15182   0.79543   0.49650     0
N     0.44762   0.59118   0.24649     0
N     0.40181   0.54542   0.24650     0
N     0.49649   0.69763   0.34117     0
N     0.49650   0.65183   0.29541     0
N     0.24649   0.94762   0.09118     0
N     0.24650   0.90182   0.04542     0
N     0.04542   0.90182   0.24651     0
N     0.09118   0.94763   0.24649     0
N     0.29541   0.65183   0.49651     0
N     0.34117   0.69763   0.49649     0
N     0.49649   0.69769   0.15190     0
N     0.49649   0.65190   0.19768     0
N     0.24648   0.94769   0.40190     0
N     0.24648   0.90191   0.44769     0
N     0.19768   0.65190   0.49649     0
N     0.15190   0.69769   0.49649     0
N     0.44768   0.90190   0.24649     0
N     0.40189   0.94769   0.24649     0
N     0.24650   0.59116   0.04536     0
N     0.24650   0.54537   0.09115     0
N     0.49650   0.84116   0.29537     0
N     0.49650   0.79537   0.34116     0
N     0.04536   0.59116   0.24650     0
N     0.09115   0.54537   0.24650     0
N     0.29536   0.84116   0.49650     0
N     0.34115   0.79537   0.49650     0
N     0.24650   0.54542   0.40182     0
N     0.24649   0.59118   0.44762     0
N     0.49650   0.79543   0.15182     0
N     0.49649   0.84118   0.19762     0
Zn    0.12150   0.74654   0.49649     0
Zn    0.37150   0.99654   0.24649     0
Zn    0.12150   0.99649   0.24653     0
Zn    0.37150   0.74649   0.49653     0
Zn    0.49649   0.62151   0.24653     0
Zn    0.24649   0.87152   0.49653     0
Zn    0.24653   0.99649   0.12150     0
Zn    0.49653   0.74649   0.37150     0
Zn    0.24653   0.62151   0.49649     0
Zn    0.49653   0.87152   0.24649     0
Zn    0.49649   0.74654   0.12151     0
Zn    0.24649   0.99654   0.37151     0
C     0.80297   0.99649   0.19002     0
C     0.83108   0.99652   0.13380     0
C     0.85922   0.99651   0.16197     0
C     0.55298   0.74649   0.44002     0
C     0.58109   0.74652   0.38380     0
C     0.60923   0.74650   0.41197     0
C     0.69009   0.99647   0.19010     0
C     0.66202   0.99652   0.13387     0
C     0.63386   0.99652   0.16202     0
C     0.94009   0.74646   0.44010     0
C     0.91202   0.74653   0.38387     0
C     0.88386   0.74653   0.41202     0
C     0.55295   0.74652   0.05296     0
C     0.58103   0.74649   0.10919     0
C     0.60918   0.74649   0.08103     0
C     0.80295   0.99652   0.30295     0
C     0.83102   0.99648   0.35919     0
C     0.85918   0.99648   0.33103     0
C     0.94002   0.74649   0.05299     0
C     0.91196   0.74651   0.10924     0
C     0.88380   0.74652   0.08110     0
C     0.69002   0.99649   0.30298     0
C     0.66196   0.99651   0.35923     0
C     0.63380   0.99652   0.33109     0
C     0.69002   0.80299   0.49649     0
C     0.66197   0.85924   0.49650     0
C     0.63380   0.83110   0.49652     0
C     0.94002   0.55299   0.24649     0
C     0.91196   0.60923   0.24650     0
C     0.88380   0.58109   0.24652     0
C     0.99649   0.69003   0.30298     0
C     0.99650   0.66197   0.35923     0
C     0.99652   0.63381   0.33109     0
C     0.74649   0.94003   0.05298     0
C     0.74650   0.91197   0.10923     0
C     0.74651   0.88381   0.08109     0
C     0.55298   0.94003   0.24649     0
C     0.58109   0.88381   0.24652     0
C     0.60923   0.91197   0.24650     0
C     0.80297   0.69003   0.49649     0
C     0.83108   0.63381   0.49652     0
C     0.85922   0.66197   0.49650     0
C     0.99647   0.69010   0.19010     0
C     0.99652   0.66203   0.13386     0
C     0.99652   0.63387   0.16202     0
C     0.74645   0.94011   0.44010     0
C     0.74651   0.91203   0.38387     0
C     0.74651   0.88388   0.41202     0
C     0.69010   0.69010   0.49647     0
C     0.66201   0.63387   0.49652     0
C     0.63386   0.66203   0.49652     0
C     0.94009   0.94010   0.24646     0
C     0.91202   0.88388   0.24653     0
C     0.88386   0.91203   0.24653     0
C     0.74650   0.55296   0.05295     0
C     0.74648   0.60918   0.08103     0
C     0.74648   0.58103   0.10918     0
C     0.99651   0.80296   0.30296     0
C     0.99648   0.85919   0.33103     0
C     0.99648   0.83103   0.35919     0
C     0.55295   0.55296   0.24652     0
C     0.58103   0.60919   0.24648     0
C     0.60918   0.58103   0.24648     0
C     0.80295   0.80296   0.49651     0
C     0.83103   0.85919   0.49648     0
C     0.85918   0.83104   0.49648     0
C     0.74649   0.55299   0.44002     0
C     0.74651   0.58109   0.38380     0
C     0.74650   0.60923   0.41197     0
C     0.99649   0.80299   0.19002     0
C     0.99652   0.83110   0.13380     0
C     0.99650   0.85924   0.16197     0
H     0.78071   0.99648   0.21227     0
H     0.89057   0.99650   0.15949     0
H     0.83360   0.99652   0.10246     0
H     0.53072   0.74647   0.46227     0
H     0.64058   0.74650   0.40949     0
H     0.58361   0.74652   0.35246     0
H     0.71235   0.99643   0.21235     0
H     0.60252   0.99653   0.15953     0
H     0.65952   0.99653   0.10252     0
H     0.96234   0.74641   0.46235     0
H     0.85251   0.74655   0.40952     0
H     0.90952   0.74655   0.35252     0
H     0.53070   0.74653   0.03071     0
H     0.64053   0.74647   0.08353     0
H     0.58353   0.74647   0.14053     0
H     0.78070   0.99653   0.28070     0
H     0.89053   0.99646   0.33353     0
H     0.83352   0.99646   0.39053     0
H     0.96226   0.74648   0.03072     0
H     0.85245   0.74652   0.08361     0
H     0.90948   0.74650   0.14058     0
H     0.71227   0.99648   0.28072     0
H     0.60246   0.99652   0.33361     0
H     0.65949   0.99650   0.39058     0
H     0.71226   0.78073   0.49647     0
H     0.60246   0.83362   0.49652     0
H     0.65949   0.89058   0.49650     0
H     0.96226   0.53072   0.24647     0
H     0.85245   0.58361   0.24652     0
H     0.90948   0.64058   0.24650     0
H     0.99647   0.71227   0.28071     0
H     0.99652   0.60247   0.33361     0
H     0.99650   0.65949   0.39057     0
H     0.74647   0.96227   0.03072     0
H     0.74652   0.85247   0.08361     0
H     0.74650   0.90950   0.14058     0
H     0.53072   0.96227   0.24647     0
H     0.64058   0.90949   0.24650     0
H     0.58361   0.85247   0.24652     0
H     0.78071   0.71227   0.49647     0
H     0.89057   0.65949   0.49650     0
H     0.83360   0.60247   0.49652     0
H     0.99643   0.71235   0.21235     0
H     0.99653   0.60253   0.15952     0
H     0.99653   0.65954   0.10252     0
H     0.74640   0.96236   0.46235     0
H     0.74653   0.85253   0.40952     0
H     0.74653   0.90954   0.35252     0
H     0.71235   0.71235   0.49643     0
H     0.60252   0.65954   0.49653     0
H     0.65951   0.60253   0.49653     0
H     0.96235   0.96235   0.24640     0
H     0.85252   0.90954   0.24655     0
H     0.90952   0.85253   0.24655     0
H     0.74652   0.53071   0.03070     0
H     0.74646   0.58352   0.14053     0
H     0.74646   0.64053   0.08353     0
H     0.99653   0.78071   0.28071     0
H     0.99646   0.83353   0.39053     0
H     0.99646   0.89054   0.33353     0
H     0.53070   0.53071   0.24653     0
H     0.64053   0.58353   0.24646     0
H     0.58352   0.64053   0.24646     0
H     0.78070   0.78071   0.49653     0
H     0.89053   0.83353   0.49646     0
H     0.83352   0.89054   0.49646     0
H     0.74647   0.53072   0.46227     0
H     0.74650   0.64058   0.40949     0
H     0.74652   0.58361   0.35246     0
H     0.99647   0.78073   0.21227     0
H     0.99650   0.89058   0.15949     0
H     0.99652   0.83362   0.10246     0
N     0.79541   0.99651   0.15182     0
N     0.84117   0.99650   0.19762     0
N     0.54542   0.74651   0.40182     0
N     0.59118   0.74649   0.44762     0
N     0.69768   0.99649   0.15190     0
N     0.65189   0.99649   0.19768     0
N     0.94768   0.74649   0.40189     0
N     0.90189   0.74649   0.44768     0
N     0.54537   0.74651   0.09116     0
N     0.59115   0.74651   0.04537     0
N     0.79536   0.99650   0.34115     0
N     0.84115   0.99650   0.29537     0
N     0.94762   0.74649   0.09118     0
N     0.90181   0.74651   0.04542     0
N     0.69762   0.99649   0.34118     0
N     0.65182   0.99651   0.29542     0
N     0.69762   0.84118   0.49649     0
N     0.65182   0.79543   0.49650     0
N     0.94762   0.59118   0.24649     0
N     0.90181   0.54542   0.24650     0
N     0.99649   0.69763   0.34117     0
N     0.99650   0.65183   0.29541     0
N     0.74649   0.94762   0.09118     0
N     0.74650   0.90182   0.04542     0
N     0.54542   0.90182   0.24651     0
N     0.59118   0.94763   0.24649     0
N     0.79541   0.65183   0.49651     0
N     0.84117   0.69763   0.49649     0
N     0.99649   0.69769   0.15190     0
N     0.99649   0.65190   0.19768     0
N     0.74648   0.94769   0.40190     0
N     0.74648   0.90191   0.44769     0
N     0.69768   0.65190   0.49649     0
N     0.65190   0.69769   0.49649     0
N     0.94768   0.90190   0.24649     0
N     0.90189   0.94769   0.24649     0
N     0.74650   0.59116   0.04536     0
N     0.74650   0.54537   0.09115     0
N     0.99650   0.84116   0.29537     0
N     0.99650   0.79537   0.34116     0
N     0.54536   0.59116   0.24650     0
N     0.59115   0.54537   0.24650     0
N     0.79536   0.84116   0.49650     0
N     0.84115   0.79537   0.49650     0
N     0.74650   0.54542   0.40182     0
N     0.74649   0.59118   0.44762     0
N     0.99650   0.79543   0.15182     0
N     0.99649   0.84118   0.19762     0
Zn    0.62150   0.74654   0.49649     0
Zn    0.87150   0.99654   0.24649     0
Zn    0.62150   0.99649   0.24653     0
Zn    0.87150   0.74649   0.49653     0
Zn    0.99649   0.62151   0.24653     0
Zn    0.74649   0.87152   0.49653     0
Zn    0.74653   0.99649   0.12150     0
Zn    0.99653   0.74649   0.37150     0
Zn    0.74653   0.62151   0.49649     0
Zn    0.99653   0.87152   0.24649     0
Zn    0.99649   0.74654   0.12151     0
Zn    0.74649   0.99654   0.37151     0
C     0.30297   0.49649   0.69002     0
C     0.33108   0.49652   0.63380     0
C     0.35922   0.49651   0.66197     0
C     0.05298   0.24649   0.94002     0
C     0.08109   0.24652   0.88380     0
C     0.10923   0.24650   0.91197     0
C     0.19009   0.49647   0.69010     0
C     0.16202   0.49652   0.63387     0
C     0.13386   0.49652   0.66202     0
C     0.44009   0.24646   0.94010     0
C     0.41202   0.24653   0.88387     0
C     0.38386   0.24653   0.91202     0
C     0.05295   0.24652   0.55296     0
C     0.08103   0.24649   0.60919     0
C     0.10918   0.24649   0.58103     0
C     0.30295   0.49652   0.80295     0
C     0.33102   0.49648   0.85919     0
C     0.35918   0.49648   0.83103     0
C     0.44002   0.24649   0.55299     0
C     0.41196   0.24651   0.60924     0
C     0.38380   0.24652   0.58110     0
C     0.19002   0.49649   0.80298     0
C     0.16196   0.49651   0.85923     0
C     0.13380   0.49652   0.83109     0
C     0.19002   0.30299   0.99649     0
C     0.16197   0.35924   0.99650     0
C     0.13380   0.33110   0.99652     0
C     0.44002   0.05299   0.74649     0
C     0.41196   0.10923   0.74650     0
C     0.38380   0.08109   0.74652     0
C     0.49649   0.19003   0.80298     0
C     0.49650   0.16197   0.85923     0
C     0.49652   0.13381   0.83109     0
C     0.24649   0.44003   0.55298     0
C     0.24650   0.41197   0.60923     0
C     0.24651   0.38381   0.58109     0
C     0.05298   0.44003   0.74649     0
C     0.08109   0.38381   0.74652     0
C     0.10923   0.41197   0.74650     0
C     0.30297   0.19003   0.99649     0
C     0.33108   0.13381   0.99652     0
C     0.35922   0.16197   0.99650     0
C     0.49647   0.19010   0.69010     0
C     0.49652   0.16203   0.63386     0
C     0.49652   0.13387   0.66202     0
C     0.24645   0.44011   0.94010     0
C     0.24651   0.41203   0.88387     0
C     0.24651   0.38388   0.91202     0
C     0.19010   0.19010   0.99647     0
C     0.16201   0.13387   0.99652     0
C     0.13386   0.16203   0.99652     0
C     0.44009   0.44010   0.74646     0
C     0.41202   0.38388   0.74653     0
C     0.38386   0.41203   0.74653     0
C     0.24650   0.05296   0.55295     0
C     0.24648   0.10918   0.58103     0
C     0.24648   0.08103   0.60918     0
C     0.49651   0.30296   0.80296     0
C     0.49648   0.35919   0.83103     0
C     0.49648   0.33103   0.85919     0
C     0.05295   0.05296   0.74652     0
C     0.08103   0.10919   0.74648     0
C     0.10918   0.08103   0.74648     0
C     0.30295   0.30296   0.99651     0
C     0.33103   0.35919   0.99648     0
C     0.35918   0.33104   0.99648     0
C     0.24649   0.05299   0.94002     0
C     0.24651   0.08109   0.88380     0
C     0.24650   0.10923   0.91197     0
C     0.49649   0.30299   0.69002     0
C     0.49652   0.33110   0.63380     0
C     0.49650   0.35924   0.66197     0
H     0.28071   0.49648   0.71227     0
H     0.39057   0.49650   0.65949     0
H     0.33360   0.49652   0.60246     0
H     0.03072   0.24647   0.96227     0
H     0.14058   0.24650   0.90949     0
H     0.08361   0.24652   0.85246     0
H     0.21235   0.49643   0.71235     0
H     0.10252   0.49653   0.65953     0
H     0.15952   0.49653   0.60252     0
H     0.46234   0.24641   0.96235     0
H     0.35251   0.24655   0.90952     0
H     0.40952   0.24655   0.85252     0
H     0.03070   0.24653   0.53071     0
H     0.14053   0.24647   0.58353     0
H     0.08353   0.24647   0.64053     0
H     0.28070   0.49653   0.78070     0
H     0.39053   0.49646   0.83353     0
H     0.33352   0.49646   0.89053     0
H     0.46226   0.24648   0.53072     0
H     0.35245   0.24652   0.58361     0
H     0.40948   0.24650   0.64058     0
H     0.21227   0.49648   0.78072     0
H     0.10246   0.49652   0.83361     0
H     0.15949   0.49650   0.89058     0
H     0.21226   0.28073   0.99647     0
H     0.10246   0.33362   0.99652     0
H     0.15949   0.39058   0.99650     0
H     0.46226   0.03072   0.74647     0
H     0.35245   0.08361   0.74652     0
H     0.40948   0.14058   0.74650     0
H     0.49647   0.21227   0.78071     0
H     0.49652   0.10247   0.83361     0
H     0.49650   0.15949   0.89057     0
H     0.24647   0.46227   0.53072     0
H     0.24652   0.35247   0.58361     0
H     0.24650   0.40950   0.64058     0
H     0.03072   0.46227   0.74647     0
H     0.14058   0.40949   0.74650     0
H     0.08361   0.35247   0.74652     0
H     0.28071   0.21227   0.99647     0
H     0.39057   0.15949   0.99650     0
H     0.33360   0.10247   0.99652     0
H     0.49643   0.21235   0.71235     0
H     0.49653   0.10253   0.65952     0
H     0.49653   0.15954   0.60252     0
H     0.24640   0.46236   0.96235     0
H     0.24653   0.35253   0.90952     0
H     0.24653   0.40954   0.85252     0
H     0.21235   0.21235   0.99643     0
H     0.10252   0.15954   0.99653     0
H     0.15951   0.10253   0.99653     0
H     0.46235   0.46235   0.74640     0
H     0.35252   0.40954   0.74655     0
H     0.40952   0.35253   0.74655     0
H     0.24652   0.03071   0.53070     0
H     0.24646   0.08352   0.64053     0
H     0.24646   0.14053   0.58353     0
H     0.49653   0.28071   0.78071     0
H     0.49646   0.33353   0.89053     0
H     0.49646   0.39054   0.83353     0
H     0.03070   0.03071   0.74653     0
H     0.14053   0.08353   0.74646     0
H     0.08352   0.14053   0.74646     0
H     0.28070   0.28071   0.99653     0
H     0.39053   0.33353   0.99646     0
H     0.33352   0.39054   0.99646     0
H     0.24647   0.03072   0.96227     0
H     0.24650   0.14058   0.90949     0
H     0.24652   0.08361   0.85246     0
H     0.49647   0.28073   0.71227     0
H     0.49650   0.39058   0.65949     0
H     0.49652   0.33362   0.60246     0
N     0.29541   0.49651   0.65182     0
N     0.34117   0.49650   0.69762     0
N     0.04542   0.24651   0.90182     0
N     0.09118   0.24649   0.94762     0
N     0.19768   0.49649   0.65190     0
N     0.15189   0.49649   0.69768     0
N     0.44768   0.24649   0.90189     0
N     0.40189   0.24649   0.94768     0
N     0.04537   0.24651   0.59116     0
N     0.09115   0.24651   0.54537     0
N     0.29536   0.49650   0.84115     0
N     0.34115   0.49650   0.79537     0
N     0.44762   0.24649   0.59118     0
N     0.40181   0.24651   0.54542     0
N     0.19762   0.49649   0.84118     0
N     0.15182   0.49651   0.79542     0
N     0.19762   0.34118   0.99649     0
N     0.15182   0.29543   0.99650     0
N     0.44762   0.09118   0.74649     0
N     0.40181   0.04542   0.74650     0
N     0.49649   0.19763   0.84117     0
N     0.49650   0.15183   0.79541     0
N     0.24649   0.44762   0.59118     0
N     0.24650   0.40182   0.54542     0
N     0.04542   0.40182   0.74651     0
N     0.09118   0.44763   0.74649     0
N     0.29541   0.15183   0.99651     0
N     0.34117   0.19763   0.99649     0
N     0.49649   0.19769   0.65190     0
N     0.49649   0.15190   0.69768     0
N     0.24648   0.44769   0.90190     0
N     0.24648   0.40191   0.94769     0
N     0.19768   0.15190   0.99649     0
N     0.15190   0.19769   0.99649     0
N     0.44768   0.40190   0.74649     0
N     0.40189   0.44769   0.74649     0
N     0.24650   0.09116   0.54536     0
N     0.24650   0.04537   0.59115     0
N     0.49650   0.34116   0.79537     0
N     0.49650   0.29537   0.84116     0
N     0.04536   0.09116   0.74650     0
N     0.09115   0.04537   0.74650     0
N     0.29536   0.34116   0.99650     0
N     0.34115   0.29537   0.99650     0
N     0.24650   0.04542   0.90182     0
N     0.24649   0.09118   0.94762     0
N     0.49650   0.29543   0.65182     0
N     0.49649   0.34118   0.69762     0
Zn    0.12150   0.24654   0.99649     0
Zn    0.37150   0.49654   0.74649     0
Zn    0.12150   0.49649   0.74653     0
Zn    0.37150   0.24649   0.99653     0
Zn    0.49649   0.12151   0.74653     0
Zn    0.24649   0.37152   0.99653     0
Zn    0.24653   0.49649   0.62150     0
Zn    0.49653   0.24649   0.87150     0
Zn    0.24653   0.12151   0.99649     0
Zn    0.49653   0.37152   0.74649     0
Zn    0.49649   0.24654   0.62151     0
Zn    0.24649   0.49654   0.87151     0
C     0.80297   0.49649   0.69002     0
C     0.83108   0.49652   0.63380     0
C     0.85922   0.49651   0.66197     0
C     0.55298   0.24649   0.94002     0
C     0.58109   0.24652   0.88380     0
C     0.60923   0.24650   0.91197     0
C     0.69009   0.49647   0.69010     0
C     0.66202   0.49652   0.63387     0
C     0.63386   0.49652   0.66202     0
C     0.94009   0.24646   0.94010     0
C     0.91202   0.24653   0.88387     0
C     0.88386   0.24653   0.91202     0
C     0.55295   0.24652   0.55296     0
C     0.58103   0.24649   0.60919     0
C     0.60918   0.24649   0.58103     0
C     0.80295   0.49652   0.80295     0
C     0.83102   0.49648   0.85919     0
C     0.85918   0.49648   0.83103     0
C     0.94002   0.24649   0.55299     0
C     0.91196   0.24651   0.60924     0
C     0.88380   0.24652   0.58110     0
C     0.69002   0.49649   0.80298     0
C     0.66196   0.49651   0.85923     0
C     0.63380   0.49652   0.83109     0
C     0.69002   0.30299   0.99649     0
C     0.66197   0.35924   0.99650     0
C     0.63380   0.33110   0.99652     0
C     0.94002   0.05299   0.74649     0
C     0.91196   0.10923   0.74650     0
C     0.88380   0.08109   0.74652     0
C     0.99649   0.19003   0.80298     0
C     0.99650   0.16197   0.85923     0
C     0.99652   0.13381   0.83109     0
C     0.74649   0.44003   0.55298     0
C     0.74650   0.41197   0.60923     0
C     0.74651   0.38381   0.58109     0
C     0.55298   0.44003   0.74649     0
C     0.58109   0.38381   0.74652     0
C     0.60923   0.41197   0.74650     0
C     0.80297   0.19003   0.99649     0
C     0.83108   0.13381   0.99652     0
C     0.85922   0.16197   0.99650     0
C     0.99647   0.19010   0.69010     0
C     0.99652   0.16203   0.63386     0
C     0.99652   0.13387   0.66202     0
C     0.74645   0.44011   0.94010     0
C     0.74651   0.41203   0.88387     0
C     0.74651   0.38388   0.91202     0
C     0.69010   0.19010   0.99647     0
C     0.66201   0.13387   0.99652     0
C     0.63386   0.16203   0.99652     0
C     0.94009   0.44010   0.74646     0
C     0.91202   0.38388   0.74653     0
C     0.88386   0.41203   0.74653     0
C     0.74650   0.05296   0.55295     0
C     0.74648   0.10918   0.58103     0
C     0.74648   0.08103   0.60918     0
C     0.99651   0.30296   0.80296     0
C     0.99648   0.35919   0.83103     0
C     0.99648   0.33103   0.85919     0
C     0.55295   0.05296   0.74652     0
C     0.58103   0.10919   0.74648     0
C     0.60918   0.08103   0.74648     0
C     0.80295   0.30296   0.99651     0
C     0.83103   0.35919   0.99648     0
C     0.85918   0.33104   0.99648     0
C     0.74649   0.05299   0.94002     0
C     0.74651   0.08109   0.88380     0
C     0.74650   0.10923   0.91197     0
C     0.99649   0.30299   0.69002     0
C     0.99652   0.33110   0.63380     0
C     0.99650   0.35924   0.66197     0
H     0.78071   0.49648   0.71227     0
H     0.89057   0.49650   0.65949     0
H     0.83360   0.49652   0.60246     0
H     0.53072   0.24647   0.96227     0
H     0.64058   0.24650   0.90949     0
H     0.58361   0.24652   0.85246     0
H     0.71235   0.49643   0.71235     0
H     0.60252   0.49653   0.65953     0
H     0.65952   0.49653   0.60252     0
H     0.96234   0.24641   0.96235     0
H     0.85251   0.24655   0.90952     0
H     0.90952   0.24655   0.85252     0
H     0.53070   0.24653   0.53071     0
H     0.64053   0.24647   0.58353     0
H     0.58353   0.24647   0.64053     0
H     0.78070   0.49653   0.78070     0
H     0.89053   0.49646   0.83353     0
H     0.83352   0.49646   0.89053     0
H     0.96226   0.24648   0.53072     0
H     0.85245   0.24652   0.58361     0
H     0.90948   0.24650   0.64058     0
H     0.71227   0.49648   0.78072     0
H     0.60246   0.49652   0.83361     0
H     0.65949   0.49650   0.89058     0
H     0.71226   0.28073   0.99647     0
H     0.60246   0.33362   0.99652     0
H     0.65949   0.39058   0.99650     0
H     0.96226   0.03072   0.74647     0
H     0.85245   0.08361   0.74652     0
H     0.90948   0.14058   0.74650     0
H     0.99647   0.21227   0.78071     0
H     0.99652   0.10247   0.83361     0
H     0.99650   0.15949   0.89057     0
H     0.74647   0.46227   0.53072     0
H     0.74652   0.35247   0.58361     0
H     0.74650   0.40950   0.64058     0
H     0.53072   0.46227   0.74647     0
H     0.64058   0.40949   0.74650     0
H     0.58361   0.35247   0.74652     0
H     0.78071   0.21227   0.99647     0
H     0.89057   0.15949   0.99650     0
H     0.83360   0.10247   0.99652     0
H     0.99643   0.21235   0.71235     0
H     0.99653   0.10253   0.65952     0
H     0.99653   0.15954   0.60252     0
H     0.74640   0.46236   0.96235     0
H     0.74653   0.35253   0.90952     0
H     0.74653   0.40954   0.85252     0
H     0.71235   0.21235   0.99643     0
H     0.60252   0.15954   0.99653     0
H     0.65951   0.10253   0.99653     0
H     0.96235   0.46235   0.74640     0
H     0.85252   0.40954   0.74655     0
H     0.90952   0.35253   0.74655     0
H     0.74652   0.03071   0.53070     0
H     0.74646   0.08352   0.64053     0
H     0.74646   0.14053   0.58353     0
H     0.99653   0.28071   0.78071     0
H     0.99646   0.33353   0.89053     0
H     0.99646   0.39054   0.83353     0
H     0.53070   0.03071   0.74653     0
H     0.64053   0.08353   0.74646     0
H     0.58352   0.14053   0.74646     0
H     0.78070   0.28071   0.99653     0
H     0.89053   0.33353   0.99646     0
H     0.83352   0.39054   0.99646     0
H     0.74647   0.03072   0.96227     0
H     0.74650   0.14058   0.90949     0
H     0.74652   0.08361   0.85246     0
H     0.99647   0.28073   0.71227     0
H     0.99650   0.39058   0.65949     0
H     0.99652   0.33362   0.60246     0
N     0.79541   0.49651   0.65182     0
N     0.84117   0.49650   0.69762     0
N     0.54542   0.24651   0.90182     0
N     0.59118   0.24649   0.94762     0
N     0.69768   0.49649   0.65190     0
N     0.65189   0.49649   0.69768     0
N     0.94768   0.24649   0.90189     0
N     0.90189   0.24649   0.94768     0
N     0.54537   0.24651   0.59116     0
N     0.59115   0.24651   0.54537     0
N     0.79536   0.49650   0.84115     0
N     0.84115   0.49650   0.79537     0
N     0.94762   0.24649   0.59118     0
N     0.90181   0.24651   0.54542     0
N     0.69762   0.49649   0.84118     0
N     0.65182   0.49651   0.79542     0
N     0.69762   0.34118   0.99649     0
N     0.65182   0.29543   0.99650     0
N     0.94762   0.09118   0.74649     0
N     0.90181   0.04542   0.74650     0
N     0.99649   0.19763   0.84117     0
N     0.99650   0.15183   0.79541     0
N     0.74649   0.44762   0.59118     0
N     0.74650   0.40182   0.54542     0
N     0.54542   0.40182   0.74651     0
N     0.59118   0.44763   0.74649     0
N     0.79541   0.15183   0.99651     0
N     0.84117   0.19763   0.99649     0
N     0.99649   0.19769   0.65190     0
N     0.99649   0.15190   0.69768     0
N     0.74648   0.44769   0.90190     0
N     0.74648   0.40191   0.94769     0
N     0.69768   0.15190   0.99649     0
N     0.65190   0.19769   0.99649     0
N     0.94768   0.40190   0.74649     0
N     0.90189   0.44769   0.74649     0
N     0.74650   0.09116   0.54536     0
N     0.74650   0.04537   0.59115     0
N     0.99650   0.34116   0.79537     0
N     0.99650   0.29537   0.84116     0
N     0.54536   0.09116   0.74650     0
N     0.59115   0.04537   0.74650     0
N     0.79536   0.34116   0.99650     0
N     0.84115   0.29537   0.99650     0
N     0.74650   0.04542   0.90182     0
N     0.74649   0.09118   0.94762     0
N     0.99650   0.29543   0.65182     0
N     0.99649   0.34118   0.69762     0
Zn    0.62150   0.24654   0.99649     0
Zn    0.87150   0.49654   0.74649     0
Zn    0.62150   0.49649   0.74653     0
Zn    0.87150   0.24649   0.99653     0
Zn    0.99649   0.12151   0.74653     0
Zn    0.74649   0.37152   0.99653     0
Zn    0.74653   0.49649   0.62150     0
Zn    0.99653   0.24649   0.87150     0
Zn    0.74653   0.12151   0.99649     0
Zn    0.99653   0.37152   0.74649     0
Zn    0.99649   0.24654   0.62151     0
Zn    0.74649   0.49654   0.87151     0
C     0.30297   0.99649   0.69002     0
C     0.33108   0.99652   0.63380     0
C     0.35922   0.99651   0.66197     0
C     0.05298   0.74649   0.94002     0
C     0.08109   0.74652   0.88380     0
C     0.10923   0.74650   0.91197     0
C     0.19009   0.99647   0.69010     0
C     0.16202   0.99652   0.63387     0
C     0.13386   0.99652   0.66202     0
C     0.44009   0.74646   0.94010     0
C     0.41202   0.74653   0.88387     0
C     0.38386   0.74653   0.91202     0
C     0.05295   0.74652   0.55296     0
C     0.08103   0.74649   0.60919     0
C     0.10918   0.74649   0.58103     0
C     0.30295   0.99652   0.80295     0
C     0.33102   0.99648   0.85919     0
C     0.35918   0.99648   0.83103     0
C     0.44002   0.74649   0.55299     0
C     0.41196   0.74651   0.60924     0
C     0.38380   0.74652   0.58110     0
C     0.19002   0.99649   0.80298     0
C     0.16196   0.99651   0.85923     0
C     0.13380   0.99652   0.83109     0
C     0.19002   0.80299   0.99649     0
C     0.16197   0.85924   0.99650     0
C     0.13380   0.83110   0.99652     0
C     0.44002   0.55299   0.74649     0
C     0.41196   0.60923   0.74650     0
C     0.38380   0.58109   0.74652     0
C     0.49649   0.69003   0.80298     0
C     0.49650   0.66197   0.85923     0
C     0.49652   0.63381   0.83109     0
C     0.24649   0.94003   0.55298     0
C     0.24650   0.91197   0.60923     0
C     0.24651   0.88381   0.58109     0
C     0.05298   0.94003   0.74649     0
C     0.08109   0.88381   0.74652     0
C     0.10923   0.91197   0.74650     0
C     0.30297   0.69003   0.99649     0
C     0.33108   0.63381   0.99652     0
C     0.35922   0.66197   0.99650     0
C     0.49647   0.69010   0.69010     0
C     0.49652   0.66203   0.63386     0
C     0.49652   0.63387   0.66202     0
C     0.24645   0.94011   0.94010     0
C     0.24651   0.91203   0.88387     0
C     0.24651   0.88388   0.91202     0
C     0.19010   0.69010   0.99647     0
C     0.16201   0.63387   0.99652     0
C     0.13386   0.66203   0.99652     0
C     0.44009   0.94010   0.74646     0
C     0.41202   0.88388   0.74653     0
C     0.38386   0.91203   0.74653     0
C     0.24650   0.55296   0.55295     0
C     0.24648   0.60918   0.58103     0
C     0.24648   0.58103   0.60918     0
C     0.49651   0.80296   0.80296     0
C     0.49648   0.85919   0.83103     0
C     0.49648   0.83103   0.85919     0
C     0.05295   0.55296   0.74652     0
C     0.08103   0.60919   0.74648     0
C     0.10918   0.58103   0.74648     0
C     0.30295   0.80296   0.99651     0
C     0.33103   0.85919   0.99648     0
C     0.35918   0.83104   0.99648     0
C     0.24649   0.55299   0.94002     0
C     0.24651   0.58109   0.88380     0
C     0.24650   0.60923   0.91197     0
C     0.49649   0.80299   0.69002     0
C     0.49652   0.83110   0.63380     0
C     0.49650   0.85924   0.66197     0
H     0.28071   0.99648   0.71227     0
H     0.39057   0.99650   0.65949     0
H     0.33360   0.99652   0.60246     0
H     0.03072   0.74647   0.96227     0
H     0.14058   0.74650   0.90949     0
H     0.08361   0.74652   0.85246     0
H     0.21235   0.99643   0.71235     0
H     0.10252   0.99653   0.65953     0
H     0.15952   0.99653   0.60252     0
H     0.46234   0.74641   0.96235     0
H     0.35251   0.74655   0.90952     0
H     0.40952   0.74655   0.85252     0
H     0.03070   0.74653   0.53071     0
H     0.14053   0.74647   0.58353     0
H     0.08353   0.74647   0.64053     0
H     0.28070   0.99653   0.78070     0
H     0.39053   0.99646   0.83353     0
H     0.33352   0.99646   0.89053     0
H     0.46226   0.74648   0.53072     0
H     0.35245   0.74652   0.58361     0
H     0.40948   0.74650   0.64058     0
H     0.21227   0.99648   0.78072     0
H     0.10246   0.99652   0.83361     0
H     0.15949   0.99650   0.89058     0
H     0.21226   0.78073   0.99647     0
H     0.10246   0.83362   0.99652     0
H     0.15949   0.89058   0.99650     0
H     0.46226   0.53072   0.74647     0
H     0.35245   0.58361   0.74652     0
H     0.40948   0.64058   0.74650     0
H     0.49647   0.71227   0.78071     0
H     0.49652   0.60247   0.83361     0
H     0.49650   0.65949   0.89057     0
H     0.24647   0.96227   0.53072     0
H     0.24652   0.85247   0.58361     0
H     0.24650   0.90950   0.64058     0
H     0.03072   0.96227   0.74647     0
H     0.14058   0.90949   0.74650     0
H     0.08361   0.85247   0.74652     0
H     0.28071   0.71227   0.99647     0
H     0.39057   0.65949   0.99650     0
H     0.33360   0.60247   0.99652     0
H     0.49643   0.71235   0.71235     0
H     0.49653   0.60253   0.65952     0
H     0.49653   0.65954   0.60252     0
H     0.24640   0.96236   0.96235     0
H     0.24653   0.85253   0.90952     0
H     0.24653   0.90954   0.85252     0
H     0.21235   0.71235   0.99643     0
H     0.10252   0.65954   0.99653     0
H     0.15951   0.60253   0.99653     0
H     0.46235   0.96235   0.74640     0
H     0.35252   0.90954   0.74655     0
H     0.40952   0.85253   0.74655     0
H     0.24652   0.53071   0.53070     0
H     0.24646   0.58352   0.64053     0
H     0.24646   0.64053   0.58353     0
H     0.49653   0.78071   0.78071     0
H     0.49646   0.83353   0.89053     0
H     0.49646   0.89054   0.83353     0
H     0.03070   0.53071   0.74653     0
H     0.14053   0.58353   0.74646     0
H     0.08352   0.64053   0.74646     0
H     0.28070   0.78071   0.99653     0
H     0.39053   0.83353   0.99646     0
H     0.33352   0.89054   0.99646     0
H     0.24647   0.53072   0.96227     0
H     0.24650   0.64058   0.90949     0
H     0.24652   0.58361   0.85246     0
H     0.49647   0.78073   0.71227     0
H     0.49650   0.89058   0.65949     0
H     0.49652   0.83362   0.60246     0
N     0.29541   0.99651   0.65182     0
N     0.34117   0.99650   0.69762     0
N     0.04542   0.74651   0.90182     0
N     0.09118   0.74649   0.94762     0
N     0.19768   0.99649   0.65190     0
N     0.15189   0.99649   0.69768     0
N     0.44768   0.74649   0.90189     0
N     0.40189   0.74649   0.94768     0
N     0.04537   0.74651   0.59116     0
N     0.09115   0.74651   0.54537     0
N     0.29536   0.99650   0.84115     0
N     0.34115   0.99650   0.79537     0
N     0.44762   0.74649   0.59118     0
N     0.40181   0.74651   0.54542     0
N     0.19762   0.99649   0.84118     0
N     0.15182   0.99651   0.79542     0
N     0.19762   0.84118   0.99649     0
N     0.15182   0.79543   0.99650     0
N     0.44762   0.59118   0.74649     0
N     0.40181   0.54542   0.74650     0
N     0.49649   0.69763   0.84117     0
N     0.49650   0.65183   0.79541     0
N     0.24649   0.94762   0.59118     0
N     0.24650   0.90182   0.54542     0
N     0.04542   0.90182   0.74651     0
N     0.09118   0.94763   0.74649     0
N     0.29541   0.65183   0.99651     0
N     0.34117   0.69763   0.99649     0
N     0.49649   0.69769   0.65190     0
N     0.49649   0.65190   0.69768     0
N     0.24648   0.94769   0.90190     0
N     0.24648   0.90191   0.94769     0
N     0.19768   0.65190   0.99649     0
N     0.15190   0.69769   0.99649     0
N     0.44768   0.90190   0.74649     0
N     0.40189   0.94769   0.74649     0
N     0.24650   0.59116   0.54536     0
N     0.24650   0.54537   0.59115     0
N     0.49650   0.84116   0.79537     0
N     0.49650   0.79537   0.84116     0
N     0.04536   0.59116   0.74650     0
N     0.09115   0.54537   0.74650     0
N     0.29536   0.84116   0.99650     0
N     0.34115   0.79537   0.99650     0
N     0.24650   0.54542   0.90182     0
N     0.24649   0.59118   0.94762     0
N     0.49650   0.79543   0.65182     0
N     0.49649   0.84118   0.69762     0
Zn    0.12150   0.74654   0.99649     0
Zn    0.37150   0.99654   0.74649     0
Zn    0.12150   0.99649   0.74653     0
Zn    0.37150   0.74649   0.99653     0
Zn    0.49649   0.62151   0.74653     0
Zn    0.24649   0.87152   0.99653     0
Zn    0.24653   0.99649   0.62150     0
Zn    0.49653   0.74649   0.87150     0
Zn    0.24653   0.62151   0.99649     0
Zn    0.49653   0.87152   0.74649     0
Zn    0.49649   0.74654   0.62151     0
Zn    0.24649   0.99654   0.87151     0
C     0.80297   0.99649   0.69002     0
C     0.83108   0.99652   0.63380     0
C     0.85922   0.99651   0.66197     0
C     0.55298   0.74649   0.94002     0
C     0.58109   0.74652   0.88380     0
C     0.60923   0.74650   0.91197     0
C     0.69009   0.99647   0.69010     0
C     0.66202   0.99652   0.63387     0
C     0.63386   0.99652   0.66202     0
C     0.94009   0.74646   0.94010     0
C     0.91202   0.74653   0.88387     0
C     0.88386   0.74653   0.91202     0
C     0.55295   0.74652   0.55296     0
C     0.58103   0.74649   0.60919     0
C     0.60918   0.74649   0.58103     0
C     0.80295   0.99652   0.80295     0
C     0.83102   0.99648   0.85919     0
C     0.85918   0.99648   0.83103     0
C     0.94002   0.74649   0.55299     0
C     0.91196   0.74651   0.60924     0
C     0.88380   0.74652   0.58110     0
C     0.69002   0.99649   0.80298     0
C     0.66196   0.99651   0.85923     0
C     0.63380   0.99652   0.83109     0
C     0.69002   0.80299   0.99649     0
C     0.66197   0.85924   0.99650     0
C     0.63380   0.83110   0.99652     0
C     0.94002   0.55299   0.74649     0
C     0.91196   0.60923   0.74650     0
C     0.88380   0.58109   0.74652     0
C     0.99649   0.69003   0.80298     0
C     0.99650   0.66197   0.85923     0
C     0.99652   0.63381   0.83109     0
C     0.74649   0.94003   0.55298     0
C     0.74650   0.91197   0.60923     0
C     0.74651   0.88381   0.58109     0
C     0.55298   0.94003   0.74649     0
C     0.58109   0.88381   0.74652     0
C     0.60923   0.91197   0.74650     0
C     0.80297   0.69003   0.99649     0
C     0.83108   0.63381   0.99652     0
C     0.85922   0.66197   0.99650     0
C     0.99647   0.69010   0.69010     0
C     0.99652   0.66203   0.63386     0
C     0.99652   0.63387   0.66202     0
C     0.74645   0.94011   0.94010     0
C     0.74651   0.91203   0.88387     0
C     0.74651   0.88388   0.91202     0
C     0.69010   0.69010   0.99647     0
C     0.66201   0.63387   0.99652     0
C     0.63386   0.66203   0.99652     0
C     0.94009   0.94010   0.74646     0
C     0.91202   0.88388   0.74653     0
C     0.88386   0.91203   0.74653     0
C     0.74650   0.55296   0.55295     0
C     0.74648   0.60918   0.58103     0
C     0.74648   0.58103   0.60918     0
C     0.99651   0.80296   0.80296     0
C     0.99648   0.85919   0.83103     0
C     0.99648   0.83103   0.85919     0
C     0.55295   0.55296   0.74652     0
C     0.58103   0.60919   0.74648     0
C     0.60918   0.58103   0.74648     0
C     0.80295   0.80296   0.99651     0
C     0.83103   0.85919   0.99648     0
C     0.85918   0.83104   0.99648     0
C     0.74649   0.55299   0.94002     0
C     0.74651   0.58109   0.88380     0
C     0.74650   0.60923   0.91197     0
C     0.99649   0.80299   0.69002     0
C     0.99652   0.83110   0.63380     0
C     0.99650   0.85924   0.66197     0
H     0.78071   0.99648   0.71227     0
H     0.89057   0.99650   0.65949     0
H     0.83360   0.99652   0.60246     0
H     0.53072   0.74647   0.96227     0
H     0.64058   0.74650   0.90949     0
H     0.58361   0.74652   0.85246     0
H     0.71235   0.99643   0.71235     0
H     0.60252   0.99653   0.65953     0
H     0.65952   0.99653   0.60252     0
H     0.96234   0.74641   0.96235     0
H     0.85251   0.74655   0.90952     0
H     0.90952   0.74655   0.85252     0
H     0.53070   0.74653   0.53071     0
H     0.64053   0.74647   0.58353     0
H     0.58353   0.74647   0.64053     0
H     0.78070   0.99653   0.78070     0
H     0.89053   0.99646   0.83353     0
H     0.83352   0.99646   0.89053     0
H     0.96226   0.74648   0.53072     0
H     0.85245   0.74652   0.58361     0
H     0.90948   0.74650   0.64058     0
H     0.71227   0.99648   0.78072     0
H     0.60246   0.99652   0.83361     0
H     0.65949   0.99650   0.89058     0
H     0.71226   0.78073   0.99647     0
H     0.60246   0.83362   0.99652     0
H     0.65949   0.89058   0.99650     0
H     0.96226   0.53072   0.74647     0
H     0.85245   0.58361   0.74652     0
H     0.90948   0.64058   0.74650     0
H     0.99647   0.71227   0.78071     0
H     0.99652   0.60247   0.83361     0
H     0.99650   0.65949   0.89057     0
H     0.74647   0.96227   0.53072     0
H     0.74652   0.85247   0.58361     0
H     0.74650   0.90950   0.64058     0
H     0.53072   0.96227   0.74647     0
H     0.64058   0.90949   0.74650     0
H     0.58361   0.85247   0.74652     0
H     0.78071   0.71227   0.99647     0
H     0.89057   0.65949   0.99650     0
H     0.83360   0.60247   0.99652     0
H     0.99643   0.71235   0.71235     0
H     0.99653   0.60253   0.65952     0
H     0.99653   0.65954   0.60252     0
H     0.74640   0.96236   0.96235     0
H     0.74653   0.85253   0.90952     0
H     0.74653   0.90954   0.85252     0
H     0.71235   0.71235   0.99643     0
H     0.60252   0.65954   0.99653     0
H     0.65951   0.60253   0.99653     0
H     0.96235   0.96235   0.74640     0
H     0.85252   0.90954   0.74655     0
H     0.90952   0.85253   0.74655     0
H     0.74652   0.53071   0.53070     0
H     0.74646   0.58352   0.64053     0
H     0.74646   0.64053   0.58353     0
H     0.99653   0.78071   0.78071     0
H     0.99646   0.83353   0.89053     0
H     0.99646   0.89054   0.83353     0
H     0.53070   0.53071   0.74653     0
H     0.64053   0.58353   0.74646     0
H     0.58352   0.64053   0.74646     0
H     0.78070   0.78071   0.99653     0
H     0.89053   0.83353   0.99646     0
H     0.83352   0.89054   0.99646     0
H     0.74647   0.53072   0.96227     0
H     0.74650   0.64058   0.90949     0
H     0.74652   0.58361   0.85246     0
H     0.99647   0.78073   0.71227     0
H     0.99650   0.89058   0.65949     0
H     0.99652   0.83362   0.60246     0
N     0.79541   0.99651   0.65182     0
N     0.84117   0.99650   0.69762     0
N     0.54542   0.74651   0.90182     0
N     0.59118   0.74649   0.94762     0
N     0.69768   0.99649   0.65190     0
N     0.65189   0.99649   0.69768     0
N     0.94768   0.74649   0.90189     0
N     0.90189   0.74649   0.94768     0
N     0.54537   0.74651   0.59116     0
N     0.59115   0.74651   0.54537     0
N     0.79536   0.99650   0.84115     0
N     0.84115   0.99650   0.79537     0
N     0.94762   0.74649   0.59118     0
N     0.90181   0.74651   0.54542     0
N     0.69762   0.99649   0.84118     0
N     0.65182   0.99651   0.79542     0
N     0.69762   0.84118   0.99649     0
N     0.65182   0.79543   0.99650     0
N     0.94762   0.59118   0.74649     0
N     0.90181   0.54542   0.74650     0
N     0.99649   0.69763   0.84117     0
N     0.99650   0.65183   0.79541     0
N     0.74649   0.94762   0.59118     0
N     0.74650   0.90182   0.54542     0
N     0.54542   0.90182   0.74651     0
N     0.59118   0.94763   0.74649     0
N     0.79541   0.65183   0.99651     0
N     0.84117   0.69763   0.99649     0
N     0.99649   0.69769   0.65190     0
N     0.99649   0.65190   0.69768     0
N     0.74648   0.94769   0.90190     0
N     0.74648   0.90191   0.94769     0
N     0.69768   0.65190   0.99649     0
N     0.65190   0.69769   0.99649     0
N     0.94768   0.90190   0.74649     0
N     0.90189   0.94769   0.74649     0
N     0.74650   0.59116   0.54536     0
N     0.74650   0.54537   0.59115     0
N     0.99650   0.84116   0.79537     0
N     0.99650   0.79537   0.84116     0
N     0.54536   0.59116   0.74650     0
N     0.59115   0.54537   0.74650     0
N     0.79536   0.84116   0.99650     0
N     0.84115   0.79537   0.99650     0
N     0.74650   0.54542   0.90182     0
N     0.74649   0.59118   0.94762     0
N     0.99650   0.79543   0.65182     0
N     0.99649   0.84118   0.69762     0
Zn    0.62150   0.74654   0.99649     0
Zn    0.87150   0.99654   0.74649     0
Zn    0.62150   0.99649   0.74653     0
Zn    0.87150   0.74649   0.99653     0
Zn    0.99649   0.62151   0.74653     0
Zn    0.74649   0.87152   0.99653     0
Zn    0.74653   0.99649   0.62150     0
Zn    0.99653   0.74649   0.87150     0
Zn    0.74653   0.62151   0.99649     0
Zn    0.99653   0.87152   0.74649     0
Zn    0.99649   0.74654   0.62151     0
Zn    0.74649   0.99654   0.87151     0
